* NGSPICE file created from fpgacell.ext - technology: sky130A

* Black-box entry subcircuit for sky130_fd_sc_hd__o22a_1 abstract view
.subckt sky130_fd_sc_hd__o22a_1 A1 A2 B1 B2 VGND VNB VPB VPWR X
.ends

* Black-box entry subcircuit for sky130_fd_sc_hd__a31o_1 abstract view
.subckt sky130_fd_sc_hd__a31o_1 A1 A2 A3 B1 VGND VNB VPB VPWR X
.ends

* Black-box entry subcircuit for sky130_fd_sc_hd__fill_2 abstract view
.subckt sky130_fd_sc_hd__fill_2 VGND VNB VPB VPWR
.ends

* Black-box entry subcircuit for sky130_fd_sc_hd__mux2_1 abstract view
.subckt sky130_fd_sc_hd__mux2_1 A0 A1 S VGND VNB VPB VPWR X
.ends

* Black-box entry subcircuit for sky130_fd_sc_hd__and2_1 abstract view
.subckt sky130_fd_sc_hd__and2_1 A B VGND VNB VPB VPWR X
.ends

* Black-box entry subcircuit for sky130_fd_sc_hd__tapvpwrvgnd_1 abstract view
.subckt sky130_fd_sc_hd__tapvpwrvgnd_1 VGND VPWR
.ends

* Black-box entry subcircuit for sky130_fd_sc_hd__fill_1 abstract view
.subckt sky130_fd_sc_hd__fill_1 VGND VNB VPB VPWR
.ends

* Black-box entry subcircuit for sky130_fd_sc_hd__a21oi_1 abstract view
.subckt sky130_fd_sc_hd__a21oi_1 A1 A2 B1 VGND VNB VPB VPWR Y
.ends

* Black-box entry subcircuit for sky130_fd_sc_hd__mux4_1 abstract view
.subckt sky130_fd_sc_hd__mux4_1 A0 A1 A2 A3 S0 S1 VGND VNB VPB VPWR X
.ends

* Black-box entry subcircuit for sky130_fd_sc_hd__clkbuf_2 abstract view
.subckt sky130_fd_sc_hd__clkbuf_2 A VGND VNB VPB VPWR X
.ends

* Black-box entry subcircuit for sky130_fd_sc_hd__buf_2 abstract view
.subckt sky130_fd_sc_hd__buf_2 A VGND VNB VPB VPWR X
.ends

* Black-box entry subcircuit for sky130_fd_sc_hd__o21ai_1 abstract view
.subckt sky130_fd_sc_hd__o21ai_1 A1 A2 B1 VGND VNB VPB VPWR Y
.ends

* Black-box entry subcircuit for sky130_fd_sc_hd__o221a_1 abstract view
.subckt sky130_fd_sc_hd__o221a_1 A1 A2 B1 B2 C1 VGND VNB VPB VPWR X
.ends

* Black-box entry subcircuit for sky130_fd_sc_hd__and4_2 abstract view
.subckt sky130_fd_sc_hd__and4_2 A B C D VGND VNB VPB VPWR X
.ends

* Black-box entry subcircuit for sky130_fd_sc_hd__o211a_1 abstract view
.subckt sky130_fd_sc_hd__o211a_1 A1 A2 B1 C1 VGND VNB VPB VPWR X
.ends

* Black-box entry subcircuit for sky130_fd_sc_hd__fill_8 abstract view
.subckt sky130_fd_sc_hd__fill_8 VGND VNB VPB VPWR
.ends

* Black-box entry subcircuit for sky130_fd_sc_hd__fill_4 abstract view
.subckt sky130_fd_sc_hd__fill_4 VGND VNB VPB VPWR
.ends

* Black-box entry subcircuit for sky130_fd_sc_hd__dfstp_2 abstract view
.subckt sky130_fd_sc_hd__dfstp_2 CLK D SET_B VGND VNB VPB VPWR Q
.ends

* Black-box entry subcircuit for sky130_fd_sc_hd__or3b_1 abstract view
.subckt sky130_fd_sc_hd__or3b_1 A B C_N VGND VNB VPB VPWR X
.ends

* Black-box entry subcircuit for sky130_fd_sc_hd__nand2_1 abstract view
.subckt sky130_fd_sc_hd__nand2_1 A B VGND VNB VPB VPWR Y
.ends

* Black-box entry subcircuit for sky130_fd_sc_hd__dfstp_1 abstract view
.subckt sky130_fd_sc_hd__dfstp_1 CLK D SET_B VGND VNB VPB VPWR Q
.ends

* Black-box entry subcircuit for sky130_fd_sc_hd__nor2_1 abstract view
.subckt sky130_fd_sc_hd__nor2_1 A B VGND VNB VPB VPWR Y
.ends

* Black-box entry subcircuit for sky130_fd_sc_hd__a21o_1 abstract view
.subckt sky130_fd_sc_hd__a21o_1 A1 A2 B1 VGND VNB VPB VPWR X
.ends

* Black-box entry subcircuit for sky130_ef_sc_hd__decap_40_12 abstract view
.subckt sky130_ef_sc_hd__decap_40_12 VPWR VGND VPB VNB
.ends

* Black-box entry subcircuit for sky130_fd_sc_hd__a41o_1 abstract view
.subckt sky130_fd_sc_hd__a41o_1 A1 A2 A3 A4 B1 VGND VNB VPB VPWR X
.ends

* Black-box entry subcircuit for sky130_fd_sc_hd__decap_3 abstract view
.subckt sky130_fd_sc_hd__decap_3 VGND VNB VPB VPWR
.ends

* Black-box entry subcircuit for sky130_fd_sc_hd__a31oi_1 abstract view
.subckt sky130_fd_sc_hd__a31oi_1 A1 A2 A3 B1 VGND VNB VPB VPWR Y
.ends

* Black-box entry subcircuit for sky130_fd_sc_hd__dfrtp_1 abstract view
.subckt sky130_fd_sc_hd__dfrtp_1 CLK D RESET_B VGND VNB VPB VPWR Q
.ends

* Black-box entry subcircuit for sky130_fd_sc_hd__or2_1 abstract view
.subckt sky130_fd_sc_hd__or2_1 A B VGND VNB VPB VPWR X
.ends

* Black-box entry subcircuit for sky130_fd_sc_hd__o21a_1 abstract view
.subckt sky130_fd_sc_hd__o21a_1 A1 A2 B1 VGND VNB VPB VPWR X
.ends

* Black-box entry subcircuit for sky130_fd_sc_hd__dlygate4sd3_1 abstract view
.subckt sky130_fd_sc_hd__dlygate4sd3_1 A VGND VNB VPB VPWR X
.ends

* Black-box entry subcircuit for sky130_fd_sc_hd__diode_2 abstract view
.subckt sky130_fd_sc_hd__diode_2 DIODE VGND VNB VPB VPWR
.ends

* Black-box entry subcircuit for sky130_fd_sc_hd__a211o_1 abstract view
.subckt sky130_fd_sc_hd__a211o_1 A1 A2 B1 C1 VGND VNB VPB VPWR X
.ends

* Black-box entry subcircuit for sky130_fd_sc_hd__a21boi_1 abstract view
.subckt sky130_fd_sc_hd__a21boi_1 A1 A2 B1_N VGND VNB VPB VPWR Y
.ends

* Black-box entry subcircuit for sky130_fd_sc_hd__nand2b_2 abstract view
.subckt sky130_fd_sc_hd__nand2b_2 A_N B VGND VNB VPB VPWR Y
.ends

* Black-box entry subcircuit for sky130_fd_sc_hd__nand2b_1 abstract view
.subckt sky130_fd_sc_hd__nand2b_1 A_N B VGND VNB VPB VPWR Y
.ends

* Black-box entry subcircuit for sky130_fd_sc_hd__inv_2 abstract view
.subckt sky130_fd_sc_hd__inv_2 A VGND VNB VPB VPWR Y
.ends

* Black-box entry subcircuit for sky130_fd_sc_hd__a32o_1 abstract view
.subckt sky130_fd_sc_hd__a32o_1 A1 A2 A3 B1 B2 VGND VNB VPB VPWR X
.ends

* Black-box entry subcircuit for sky130_fd_sc_hd__a221o_1 abstract view
.subckt sky130_fd_sc_hd__a221o_1 A1 A2 B1 B2 C1 VGND VNB VPB VPWR X
.ends

* Black-box entry subcircuit for sky130_fd_sc_hd__nor2_2 abstract view
.subckt sky130_fd_sc_hd__nor2_2 A B VGND VNB VPB VPWR Y
.ends

* Black-box entry subcircuit for sky130_fd_sc_hd__or3_1 abstract view
.subckt sky130_fd_sc_hd__or3_1 A B C VGND VNB VPB VPWR X
.ends

* Black-box entry subcircuit for sky130_fd_sc_hd__or4b_2 abstract view
.subckt sky130_fd_sc_hd__or4b_2 A B C D_N VGND VNB VPB VPWR X
.ends

* Black-box entry subcircuit for sky130_fd_sc_hd__o221ai_1 abstract view
.subckt sky130_fd_sc_hd__o221ai_1 A1 A2 B1 B2 C1 VGND VNB VPB VPWR Y
.ends

* Black-box entry subcircuit for sky130_fd_sc_hd__and3_1 abstract view
.subckt sky130_fd_sc_hd__and3_1 A B C VGND VNB VPB VPWR X
.ends

* Black-box entry subcircuit for sky130_fd_sc_hd__clkbuf_4 abstract view
.subckt sky130_fd_sc_hd__clkbuf_4 A VGND VNB VPB VPWR X
.ends

* Black-box entry subcircuit for sky130_fd_sc_hd__o311a_1 abstract view
.subckt sky130_fd_sc_hd__o311a_1 A1 A2 A3 B1 C1 VGND VNB VPB VPWR X
.ends

* Black-box entry subcircuit for sky130_fd_sc_hd__a31o_2 abstract view
.subckt sky130_fd_sc_hd__a31o_2 A1 A2 A3 B1 VGND VNB VPB VPWR X
.ends

* Black-box entry subcircuit for sky130_fd_sc_hd__nor2_4 abstract view
.subckt sky130_fd_sc_hd__nor2_4 A B VGND VNB VPB VPWR Y
.ends

* Black-box entry subcircuit for sky130_fd_sc_hd__a21bo_1 abstract view
.subckt sky130_fd_sc_hd__a21bo_1 A1 A2 B1_N VGND VNB VPB VPWR X
.ends

* Black-box entry subcircuit for sky130_fd_sc_hd__and3b_1 abstract view
.subckt sky130_fd_sc_hd__and3b_1 A_N B C VGND VNB VPB VPWR X
.ends

* Black-box entry subcircuit for sky130_fd_sc_hd__and2b_1 abstract view
.subckt sky130_fd_sc_hd__and2b_1 A_N B VGND VNB VPB VPWR X
.ends

* Black-box entry subcircuit for sky130_fd_sc_hd__o21ba_1 abstract view
.subckt sky130_fd_sc_hd__o21ba_1 A1 A2 B1_N VGND VNB VPB VPWR X
.ends

* Black-box entry subcircuit for sky130_fd_sc_hd__o32a_1 abstract view
.subckt sky130_fd_sc_hd__o32a_1 A1 A2 A3 B1 B2 VGND VNB VPB VPWR X
.ends

* Black-box entry subcircuit for sky130_fd_sc_hd__o21bai_2 abstract view
.subckt sky130_fd_sc_hd__o21bai_2 A1 A2 B1_N VGND VNB VPB VPWR Y
.ends

* Black-box entry subcircuit for sky130_fd_sc_hd__a221o_2 abstract view
.subckt sky130_fd_sc_hd__a221o_2 A1 A2 B1 B2 C1 VGND VNB VPB VPWR X
.ends

* Black-box entry subcircuit for sky130_fd_sc_hd__a211oi_2 abstract view
.subckt sky130_fd_sc_hd__a211oi_2 A1 A2 B1 C1 VGND VNB VPB VPWR Y
.ends

* Black-box entry subcircuit for sky130_fd_sc_hd__clkbuf_8 abstract view
.subckt sky130_fd_sc_hd__clkbuf_8 A VGND VNB VPB VPWR X
.ends

* Black-box entry subcircuit for sky130_fd_sc_hd__a221oi_1 abstract view
.subckt sky130_fd_sc_hd__a221oi_1 A1 A2 B1 B2 C1 VGND VNB VPB VPWR Y
.ends

* Black-box entry subcircuit for sky130_fd_sc_hd__inv_6 abstract view
.subckt sky130_fd_sc_hd__inv_6 A VGND VNB VPB VPWR Y
.ends

* Black-box entry subcircuit for sky130_fd_sc_hd__o32ai_2 abstract view
.subckt sky130_fd_sc_hd__o32ai_2 A1 A2 A3 B1 B2 VGND VNB VPB VPWR Y
.ends

* Black-box entry subcircuit for sky130_fd_sc_hd__o32ai_1 abstract view
.subckt sky130_fd_sc_hd__o32ai_1 A1 A2 A3 B1 B2 VGND VNB VPB VPWR Y
.ends

* Black-box entry subcircuit for sky130_fd_sc_hd__nand3b_1 abstract view
.subckt sky130_fd_sc_hd__nand3b_1 A_N B C VGND VNB VPB VPWR Y
.ends

* Black-box entry subcircuit for sky130_fd_sc_hd__o31a_1 abstract view
.subckt sky130_fd_sc_hd__o31a_1 A1 A2 A3 B1 VGND VNB VPB VPWR X
.ends

* Black-box entry subcircuit for sky130_fd_sc_hd__or2_2 abstract view
.subckt sky130_fd_sc_hd__or2_2 A B VGND VNB VPB VPWR X
.ends

* Black-box entry subcircuit for sky130_fd_sc_hd__nor3b_4 abstract view
.subckt sky130_fd_sc_hd__nor3b_4 A B C_N VGND VNB VPB VPWR Y
.ends

* Black-box entry subcircuit for sky130_fd_sc_hd__clkinv_4 abstract view
.subckt sky130_fd_sc_hd__clkinv_4 A VGND VNB VPB VPWR Y
.ends

* Black-box entry subcircuit for sky130_fd_sc_hd__or3_2 abstract view
.subckt sky130_fd_sc_hd__or3_2 A B C VGND VNB VPB VPWR X
.ends

* Black-box entry subcircuit for sky130_fd_sc_hd__and3b_2 abstract view
.subckt sky130_fd_sc_hd__and3b_2 A_N B C VGND VNB VPB VPWR X
.ends

* Black-box entry subcircuit for sky130_fd_sc_hd__nand2_2 abstract view
.subckt sky130_fd_sc_hd__nand2_2 A B VGND VNB VPB VPWR Y
.ends

* Black-box entry subcircuit for sky130_fd_sc_hd__clkinv_8 abstract view
.subckt sky130_fd_sc_hd__clkinv_8 A VGND VNB VPB VPWR Y
.ends

* Black-box entry subcircuit for sky130_fd_sc_hd__or4b_1 abstract view
.subckt sky130_fd_sc_hd__or4b_1 A B C D_N VGND VNB VPB VPWR X
.ends

* Black-box entry subcircuit for sky130_fd_sc_hd__bufinv_16 abstract view
.subckt sky130_fd_sc_hd__bufinv_16 A VGND VNB VPB VPWR Y
.ends

* Black-box entry subcircuit for sky130_fd_sc_hd__o21ai_4 abstract view
.subckt sky130_fd_sc_hd__o21ai_4 A1 A2 B1 VGND VNB VPB VPWR Y
.ends

* Black-box entry subcircuit for sky130_fd_sc_hd__nor3_1 abstract view
.subckt sky130_fd_sc_hd__nor3_1 A B C VGND VNB VPB VPWR Y
.ends

* Black-box entry subcircuit for sky130_fd_sc_hd__a311o_1 abstract view
.subckt sky130_fd_sc_hd__a311o_1 A1 A2 A3 B1 C1 VGND VNB VPB VPWR X
.ends

* Black-box entry subcircuit for sky130_fd_sc_hd__a21oi_2 abstract view
.subckt sky130_fd_sc_hd__a21oi_2 A1 A2 B1 VGND VNB VPB VPWR Y
.ends

* Black-box entry subcircuit for sky130_fd_sc_hd__nand3b_2 abstract view
.subckt sky130_fd_sc_hd__nand3b_2 A_N B C VGND VNB VPB VPWR Y
.ends

* Black-box entry subcircuit for sky130_fd_sc_hd__clkbuf_16 abstract view
.subckt sky130_fd_sc_hd__clkbuf_16 A VGND VNB VPB VPWR X
.ends

* Black-box entry subcircuit for sky130_fd_sc_hd__a2bb2o_1 abstract view
.subckt sky130_fd_sc_hd__a2bb2o_1 A1_N A2_N B1 B2 VGND VNB VPB VPWR X
.ends

* Black-box entry subcircuit for sky130_fd_sc_hd__xnor2_1 abstract view
.subckt sky130_fd_sc_hd__xnor2_1 A B VGND VNB VPB VPWR Y
.ends

* Black-box entry subcircuit for sky130_fd_sc_hd__nor3b_2 abstract view
.subckt sky130_fd_sc_hd__nor3b_2 A B C_N VGND VNB VPB VPWR Y
.ends

* Black-box entry subcircuit for sky130_fd_sc_hd__or3_4 abstract view
.subckt sky130_fd_sc_hd__or3_4 A B C VGND VNB VPB VPWR X
.ends

* Black-box entry subcircuit for sky130_fd_sc_hd__inv_8 abstract view
.subckt sky130_fd_sc_hd__inv_8 A VGND VNB VPB VPWR Y
.ends

* Black-box entry subcircuit for sky130_fd_sc_hd__a31oi_2 abstract view
.subckt sky130_fd_sc_hd__a31oi_2 A1 A2 A3 B1 VGND VNB VPB VPWR Y
.ends

* Black-box entry subcircuit for sky130_fd_sc_hd__o31a_4 abstract view
.subckt sky130_fd_sc_hd__o31a_4 A1 A2 A3 B1 VGND VNB VPB VPWR X
.ends

* Black-box entry subcircuit for sky130_fd_sc_hd__xor2_2 abstract view
.subckt sky130_fd_sc_hd__xor2_2 A B VGND VNB VPB VPWR X
.ends

* Black-box entry subcircuit for sky130_fd_sc_hd__inv_12 abstract view
.subckt sky130_fd_sc_hd__inv_12 A VGND VNB VPB VPWR Y
.ends

* Black-box entry subcircuit for sky130_fd_sc_hd__nand2_4 abstract view
.subckt sky130_fd_sc_hd__nand2_4 A B VGND VNB VPB VPWR Y
.ends

* Black-box entry subcircuit for sky130_fd_sc_hd__o21bai_1 abstract view
.subckt sky130_fd_sc_hd__o21bai_1 A1 A2 B1_N VGND VNB VPB VPWR Y
.ends

* Black-box entry subcircuit for sky130_fd_sc_hd__or3b_2 abstract view
.subckt sky130_fd_sc_hd__or3b_2 A B C_N VGND VNB VPB VPWR X
.ends

* Black-box entry subcircuit for sky130_fd_sc_hd__inv_4 abstract view
.subckt sky130_fd_sc_hd__inv_4 A VGND VNB VPB VPWR Y
.ends

* Black-box entry subcircuit for sky130_fd_sc_hd__clkinv_1 abstract view
.subckt sky130_fd_sc_hd__clkinv_1 A VGND VNB VPB VPWR Y
.ends

* Black-box entry subcircuit for sky130_fd_sc_hd__o2111a_1 abstract view
.subckt sky130_fd_sc_hd__o2111a_1 A1 A2 B1 C1 D1 VGND VNB VPB VPWR X
.ends

* Black-box entry subcircuit for sky130_fd_sc_hd__clkinv_2 abstract view
.subckt sky130_fd_sc_hd__clkinv_2 A VGND VNB VPB VPWR Y
.ends

* Black-box entry subcircuit for sky130_fd_sc_hd__clkinvlp_4 abstract view
.subckt sky130_fd_sc_hd__clkinvlp_4 A VGND VNB VPB VPWR Y
.ends

* Black-box entry subcircuit for sky130_fd_sc_hd__a311oi_2 abstract view
.subckt sky130_fd_sc_hd__a311oi_2 A1 A2 A3 B1 C1 VGND VNB VPB VPWR Y
.ends

* Black-box entry subcircuit for sky130_fd_sc_hd__o2bb2a_1 abstract view
.subckt sky130_fd_sc_hd__o2bb2a_1 A1_N A2_N B1 B2 VGND VNB VPB VPWR X
.ends

* Black-box entry subcircuit for sky130_fd_sc_hd__a311oi_1 abstract view
.subckt sky130_fd_sc_hd__a311oi_1 A1 A2 A3 B1 C1 VGND VNB VPB VPWR Y
.ends

* Black-box entry subcircuit for sky130_fd_sc_hd__buf_1 abstract view
.subckt sky130_fd_sc_hd__buf_1 A VGND VNB VPB VPWR X
.ends

* Black-box entry subcircuit for sky130_fd_sc_hd__o22ai_1 abstract view
.subckt sky130_fd_sc_hd__o22ai_1 A1 A2 B1 B2 VGND VNB VPB VPWR Y
.ends

* Black-box entry subcircuit for sky130_fd_sc_hd__dfrtp_2 abstract view
.subckt sky130_fd_sc_hd__dfrtp_2 CLK D RESET_B VGND VNB VPB VPWR Q
.ends

* Black-box entry subcircuit for sky130_fd_sc_hd__dlymetal6s2s_1 abstract view
.subckt sky130_fd_sc_hd__dlymetal6s2s_1 A VGND VNB VPB VPWR X
.ends

* Black-box entry subcircuit for sky130_fd_sc_hd__o31ai_4 abstract view
.subckt sky130_fd_sc_hd__o31ai_4 A1 A2 A3 B1 VGND VNB VPB VPWR Y
.ends

* Black-box entry subcircuit for sky130_fd_sc_hd__nor3b_1 abstract view
.subckt sky130_fd_sc_hd__nor3b_1 A B C_N VGND VNB VPB VPWR Y
.ends

* Black-box entry subcircuit for sky130_fd_sc_hd__clkbuf_1 abstract view
.subckt sky130_fd_sc_hd__clkbuf_1 A VGND VNB VPB VPWR X
.ends

* Black-box entry subcircuit for sky130_fd_sc_hd__o31a_2 abstract view
.subckt sky130_fd_sc_hd__o31a_2 A1 A2 A3 B1 VGND VNB VPB VPWR X
.ends

* Black-box entry subcircuit for sky130_fd_sc_hd__a22oi_1 abstract view
.subckt sky130_fd_sc_hd__a22oi_1 A1 A2 B1 B2 VGND VNB VPB VPWR Y
.ends

* Black-box entry subcircuit for sky130_fd_sc_hd__and2_2 abstract view
.subckt sky130_fd_sc_hd__and2_2 A B VGND VNB VPB VPWR X
.ends

* Black-box entry subcircuit for sky130_fd_sc_hd__o311ai_1 abstract view
.subckt sky130_fd_sc_hd__o311ai_1 A1 A2 A3 B1 C1 VGND VNB VPB VPWR Y
.ends

* Black-box entry subcircuit for sky130_fd_sc_hd__and4b_1 abstract view
.subckt sky130_fd_sc_hd__and4b_1 A_N B C D VGND VNB VPB VPWR X
.ends

* Black-box entry subcircuit for sky130_fd_sc_hd__and2b_2 abstract view
.subckt sky130_fd_sc_hd__and2b_2 A_N B VGND VNB VPB VPWR X
.ends

* Black-box entry subcircuit for sky130_fd_sc_hd__buf_4 abstract view
.subckt sky130_fd_sc_hd__buf_4 A VGND VNB VPB VPWR X
.ends

* Black-box entry subcircuit for sky130_fd_sc_hd__nor4_1 abstract view
.subckt sky130_fd_sc_hd__nor4_1 A B C D VGND VNB VPB VPWR Y
.ends

* Black-box entry subcircuit for sky130_fd_sc_hd__and4_1 abstract view
.subckt sky130_fd_sc_hd__and4_1 A B C D VGND VNB VPB VPWR X
.ends

* Black-box entry subcircuit for sky130_fd_sc_hd__o31ai_1 abstract view
.subckt sky130_fd_sc_hd__o31ai_1 A1 A2 A3 B1 VGND VNB VPB VPWR Y
.ends

* Black-box entry subcircuit for sky130_fd_sc_hd__nor3_4 abstract view
.subckt sky130_fd_sc_hd__nor3_4 A B C VGND VNB VPB VPWR Y
.ends

* Black-box entry subcircuit for sky130_fd_sc_hd__o31ai_2 abstract view
.subckt sky130_fd_sc_hd__o31ai_2 A1 A2 A3 B1 VGND VNB VPB VPWR Y
.ends

* Black-box entry subcircuit for sky130_fd_sc_hd__o311a_2 abstract view
.subckt sky130_fd_sc_hd__o311a_2 A1 A2 A3 B1 C1 VGND VNB VPB VPWR X
.ends

* Black-box entry subcircuit for sky130_fd_sc_hd__o221a_2 abstract view
.subckt sky130_fd_sc_hd__o221a_2 A1 A2 B1 B2 C1 VGND VNB VPB VPWR X
.ends

* Black-box entry subcircuit for sky130_fd_sc_hd__a311o_4 abstract view
.subckt sky130_fd_sc_hd__a311o_4 A1 A2 A3 B1 C1 VGND VNB VPB VPWR X
.ends

* Black-box entry subcircuit for sky130_fd_sc_hd__and4bb_1 abstract view
.subckt sky130_fd_sc_hd__and4bb_1 A_N B_N C D VGND VNB VPB VPWR X
.ends

* Black-box entry subcircuit for sky130_fd_sc_hd__nand3_1 abstract view
.subckt sky130_fd_sc_hd__nand3_1 A B C VGND VNB VPB VPWR Y
.ends

* Black-box entry subcircuit for sky130_fd_sc_hd__or3b_4 abstract view
.subckt sky130_fd_sc_hd__or3b_4 A B C_N VGND VNB VPB VPWR X
.ends

* Black-box entry subcircuit for sky130_fd_sc_hd__a32oi_4 abstract view
.subckt sky130_fd_sc_hd__a32oi_4 A1 A2 A3 B1 B2 VGND VNB VPB VPWR Y
.ends

* Black-box entry subcircuit for sky130_fd_sc_hd__o32a_2 abstract view
.subckt sky130_fd_sc_hd__o32a_2 A1 A2 A3 B1 B2 VGND VNB VPB VPWR X
.ends

* Black-box entry subcircuit for sky130_fd_sc_hd__and3_2 abstract view
.subckt sky130_fd_sc_hd__and3_2 A B C VGND VNB VPB VPWR X
.ends

* Black-box entry subcircuit for sky130_fd_sc_hd__o311a_4 abstract view
.subckt sky130_fd_sc_hd__o311a_4 A1 A2 A3 B1 C1 VGND VNB VPB VPWR X
.ends

* Black-box entry subcircuit for sky130_fd_sc_hd__o211ai_1 abstract view
.subckt sky130_fd_sc_hd__o211ai_1 A1 A2 B1 C1 VGND VNB VPB VPWR Y
.ends

* Black-box entry subcircuit for sky130_fd_sc_hd__o41a_1 abstract view
.subckt sky130_fd_sc_hd__o41a_1 A1 A2 A3 A4 B1 VGND VNB VPB VPWR X
.ends

* Black-box entry subcircuit for sky130_fd_sc_hd__o211ai_2 abstract view
.subckt sky130_fd_sc_hd__o211ai_2 A1 A2 B1 C1 VGND VNB VPB VPWR Y
.ends

* Black-box entry subcircuit for sky130_fd_sc_hd__o211a_2 abstract view
.subckt sky130_fd_sc_hd__o211a_2 A1 A2 B1 C1 VGND VNB VPB VPWR X
.ends

* Black-box entry subcircuit for sky130_fd_sc_hd__and3_4 abstract view
.subckt sky130_fd_sc_hd__and3_4 A B C VGND VNB VPB VPWR X
.ends

* Black-box entry subcircuit for sky130_fd_sc_hd__a311o_2 abstract view
.subckt sky130_fd_sc_hd__a311o_2 A1 A2 A3 B1 C1 VGND VNB VPB VPWR X
.ends

.subckt fpgacell CBeast_in[0] CBeast_in[10] CBeast_in[11] CBeast_in[12] CBeast_in[13]
+ CBeast_in[14] CBeast_in[15] CBeast_in[1] CBeast_in[2] CBeast_in[3] CBeast_in[4]
+ CBeast_in[5] CBeast_in[6] CBeast_in[7] CBeast_in[8] CBeast_in[9] CBeast_out[0] CBeast_out[10]
+ CBeast_out[11] CBeast_out[12] CBeast_out[13] CBeast_out[14] CBeast_out[15] CBeast_out[1]
+ CBeast_out[2] CBeast_out[3] CBeast_out[4] CBeast_out[5] CBeast_out[6] CBeast_out[7]
+ CBeast_out[8] CBeast_out[9] CBnorth_in[0] CBnorth_in[10] CBnorth_in[11] CBnorth_in[12]
+ CBnorth_in[13] CBnorth_in[14] CBnorth_in[15] CBnorth_in[1] CBnorth_in[2] CBnorth_in[3]
+ CBnorth_in[4] CBnorth_in[5] CBnorth_in[6] CBnorth_in[7] CBnorth_in[8] CBnorth_in[9]
+ CBnorth_out[0] CBnorth_out[10] CBnorth_out[11] CBnorth_out[12] CBnorth_out[13] CBnorth_out[14]
+ CBnorth_out[15] CBnorth_out[1] CBnorth_out[2] CBnorth_out[3] CBnorth_out[4] CBnorth_out[5]
+ CBnorth_out[6] CBnorth_out[7] CBnorth_out[8] CBnorth_out[9] SBsouth_in[0] SBsouth_in[10]
+ SBsouth_in[11] SBsouth_in[12] SBsouth_in[13] SBsouth_in[14] SBsouth_in[15] SBsouth_in[1]
+ SBsouth_in[2] SBsouth_in[3] SBsouth_in[4] SBsouth_in[5] SBsouth_in[6] SBsouth_in[7]
+ SBsouth_in[8] SBsouth_in[9] SBsouth_out[0] SBsouth_out[10] SBsouth_out[11] SBsouth_out[12]
+ SBsouth_out[13] SBsouth_out[14] SBsouth_out[15] SBsouth_out[1] SBsouth_out[2] SBsouth_out[3]
+ SBsouth_out[4] SBsouth_out[5] SBsouth_out[6] SBsouth_out[7] SBsouth_out[8] SBsouth_out[9]
+ SBwest_in[0] SBwest_in[10] SBwest_in[11] SBwest_in[12] SBwest_in[13] SBwest_in[14]
+ SBwest_in[15] SBwest_in[1] SBwest_in[2] SBwest_in[3] SBwest_in[4] SBwest_in[5] SBwest_in[6]
+ SBwest_in[7] SBwest_in[8] SBwest_in[9] SBwest_out[0] SBwest_out[10] SBwest_out[11]
+ SBwest_out[12] SBwest_out[13] SBwest_out[14] SBwest_out[15] SBwest_out[1] SBwest_out[2]
+ SBwest_out[3] SBwest_out[4] SBwest_out[5] SBwest_out[6] SBwest_out[7] SBwest_out[8]
+ SBwest_out[9] clk config_data_in config_data_out config_en le_clk le_en le_nrst
+ nrst vccd1 vssd1
X_2106_ _0464_ _0737_ _0739_ LEI0.config_data\[2\] vssd1 vssd1 vccd1 vccd1 _0740_
+ sky130_fd_sc_hd__o22a_1
X_2037_ _0664_ _0668_ _0669_ _0670_ vssd1 vssd1 vccd1 vccd1 _0671_ sky130_fd_sc_hd__a31o_1
XFILLER_39_277 vssd1 vssd1 vccd1 vccd1 sky130_fd_sc_hd__fill_2
X_3155_ SB0.route_sel\[74\] SB0.route_sel\[73\] net275 vssd1 vssd1 vccd1 vccd1 _0215_
+ sky130_fd_sc_hd__mux2_1
X_3086_ SB0.route_sel\[5\] SB0.route_sel\[4\] net267 vssd1 vssd1 vccd1 vccd1 _0146_
+ sky130_fd_sc_hd__mux2_1
X_2939_ _0458_ _1493_ vssd1 vssd1 vccd1 vccd1 net107 sky130_fd_sc_hd__and2_1
XTAP_TAPCELL_ROW_43_448 vssd1 vccd1 sky130_fd_sc_hd__tapvpwrvgnd_1
XFILLER_3_45 vssd1 vssd1 vccd1 vccd1 sky130_fd_sc_hd__fill_1
X_2724_ _1599_ _1349_ _1351_ vssd1 vssd1 vccd1 vccd1 _1352_ sky130_fd_sc_hd__a21oi_1
X_2655_ net4 net5 net6 net7 net211 net209 vssd1 vssd1 vccd1 vccd1 _1283_ sky130_fd_sc_hd__mux4_1
XFILLER_67_361 vssd1 vssd1 vccd1 vccd1 sky130_fd_sc_hd__fill_1
Xfanout149 net150 vssd1 vssd1 vccd1 vccd1 net149 sky130_fd_sc_hd__clkbuf_2
X_3207_ SB0.route_sel\[126\] SB0.route_sel\[125\] net304 vssd1 vssd1 vccd1 vccd1 _0267_
+ sky130_fd_sc_hd__mux2_1
Xfanout138 _1604_ vssd1 vssd1 vccd1 vccd1 net138 sky130_fd_sc_hd__buf_2
X_2586_ net167 _1213_ _1214_ _1215_ vssd1 vssd1 vccd1 vccd1 _1216_ sky130_fd_sc_hd__a31o_1
XFILLER_27_225 vssd1 vssd1 vccd1 vccd1 sky130_fd_sc_hd__fill_2
X_3069_ CB_1.config_dataB\[13\] CB_1.config_dataB\[12\] net284 vssd1 vssd1 vccd1 vccd1
+ _0129_ sky130_fd_sc_hd__mux2_1
X_3138_ SB0.route_sel\[57\] SB0.route_sel\[56\] net277 vssd1 vssd1 vccd1 vccd1 _0198_
+ sky130_fd_sc_hd__mux2_1
XTAP_TAPCELL_ROW_40_429 vssd1 vccd1 sky130_fd_sc_hd__tapvpwrvgnd_1
XTAP_TAPCELL_ROW_56_540 vssd1 vccd1 sky130_fd_sc_hd__tapvpwrvgnd_1
XTAP_TAPCELL_ROW_5_184 vssd1 vccd1 sky130_fd_sc_hd__tapvpwrvgnd_1
XFILLER_37_95 vssd1 vssd1 vccd1 vccd1 sky130_fd_sc_hd__fill_1
X_2440_ SB0.route_sel\[63\] _1533_ _1069_ vssd1 vssd1 vccd1 vccd1 _1070_ sky130_fd_sc_hd__o21ai_1
X_2371_ _0461_ _0985_ _1000_ _1001_ _1002_ vssd1 vssd1 vccd1 vccd1 _1003_ sky130_fd_sc_hd__o221a_1
XFILLER_32_272 vssd1 vssd1 vccd1 vccd1 sky130_fd_sc_hd__fill_1
X_2638_ CB_1.config_dataB\[3\] _1257_ _1261_ _1265_ vssd1 vssd1 vccd1 vccd1 _1266_
+ sky130_fd_sc_hd__and4_2
X_2569_ _1592_ _1196_ CB_1.config_dataA\[18\] vssd1 vssd1 vccd1 vccd1 _1199_ sky130_fd_sc_hd__a21oi_1
X_2707_ net207 _1096_ _1334_ net206 vssd1 vssd1 vccd1 vccd1 _1335_ sky130_fd_sc_hd__o211a_1
XFILLER_23_272 vssd1 vssd1 vccd1 vccd1 sky130_fd_sc_hd__fill_8
XFILLER_38_309 vssd1 vssd1 vccd1 vccd1 sky130_fd_sc_hd__fill_4
XFILLER_48_83 vssd1 vssd1 vccd1 vccd1 sky130_fd_sc_hd__fill_1
XFILLER_0_57 vssd1 vssd1 vccd1 vccd1 sky130_fd_sc_hd__fill_8
XFILLER_17_9 vssd1 vssd1 vccd1 vccd1 sky130_fd_sc_hd__fill_4
X_3610_ clknet_leaf_6_clk _0306_ net246 vssd1 vssd1 vccd1 vccd1 CB_0.config_dataB\[12\]
+ sky130_fd_sc_hd__dfstp_2
X_1940_ _0571_ net147 net163 vssd1 vssd1 vccd1 vccd1 _0574_ sky130_fd_sc_hd__or3b_1
X_1871_ SB0.route_sel\[87\] SB0.route_sel\[86\] vssd1 vssd1 vccd1 vccd1 _0505_ sky130_fd_sc_hd__nand2_1
XTAP_TAPCELL_ROW_16_256 vssd1 vccd1 sky130_fd_sc_hd__tapvpwrvgnd_1
X_3541_ clknet_leaf_3_clk _0237_ net243 vssd1 vssd1 vccd1 vccd1 SB0.route_sel\[96\]
+ sky130_fd_sc_hd__dfstp_1
X_2423_ SB0.route_sel\[92\] SB0.route_sel\[93\] _1552_ SB0.route_sel\[88\] _1052_
+ vssd1 vssd1 vccd1 vccd1 _1053_ sky130_fd_sc_hd__o221a_1
X_3472_ clknet_leaf_0_clk _0168_ net222 vssd1 vssd1 vccd1 vccd1 SB0.route_sel\[27\]
+ sky130_fd_sc_hd__dfstp_2
XTAP_TAPCELL_ROW_67_624 vssd1 vccd1 sky130_fd_sc_hd__tapvpwrvgnd_1
XTAP_TAPCELL_ROW_67_613 vssd1 vccd1 sky130_fd_sc_hd__tapvpwrvgnd_1
XFILLER_56_139 vssd1 vssd1 vccd1 vccd1 sky130_fd_sc_hd__fill_1
X_2354_ net182 CB_0.config_dataB\[16\] vssd1 vssd1 vccd1 vccd1 _0986_ sky130_fd_sc_hd__nor2_1
X_2285_ _0730_ _0732_ _0906_ vssd1 vssd1 vccd1 vccd1 _0917_ sky130_fd_sc_hd__a21o_1
XFILLER_64_150 vssd1 vssd1 vccd1 vccd1 sky130_fd_sc_hd__fill_2
XFILLER_47_117 vssd1 vssd1 vccd1 vccd1 sky130_fd_sc_hd__fill_4
XTAP_TAPCELL_ROW_13_237 vssd1 vccd1 sky130_fd_sc_hd__tapvpwrvgnd_1
XFILLER_50_62 vssd1 vssd1 vccd1 vccd1 sky130_fd_sc_hd__fill_1
XTAP_TAPCELL_ROW_21_292 vssd1 vccd1 sky130_fd_sc_hd__tapvpwrvgnd_1
XFILLER_15_6 vccd1 vssd1 vccd1 vssd1 sky130_ef_sc_hd__decap_40_12
X_2070_ SB0.route_sel\[12\] SB0.route_sel\[13\] net56 _0703_ _0702_ vssd1 vssd1 vccd1
+ vccd1 _0704_ sky130_fd_sc_hd__a41o_1
XFILLER_19_320 vssd1 vssd1 vccd1 vccd1 sky130_fd_sc_hd__fill_1
X_2972_ LEI0.config_data\[31\] LEI0.config_data\[30\] net311 vssd1 vssd1 vccd1 vccd1
+ _0032_ sky130_fd_sc_hd__mux2_1
XFILLER_34_356 vssd1 vssd1 vccd1 vccd1 sky130_fd_sc_hd__fill_1
XPHY_EDGE_ROW_28_Left_96 vssd1 vssd1 vccd1 vccd1 sky130_fd_sc_hd__decap_3
X_1854_ _0481_ _0485_ _0486_ _0487_ vssd1 vssd1 vccd1 vccd1 _0488_ sky130_fd_sc_hd__a31oi_1
X_1785_ SB0.route_sel\[103\] SB0.route_sel\[102\] vssd1 vssd1 vccd1 vccd1 _0419_ sky130_fd_sc_hd__nand2_1
X_1923_ net162 net157 vssd1 vssd1 vccd1 vccd1 _0557_ sky130_fd_sc_hd__nor2_1
X_3386_ clknet_leaf_4_clk net339 net241 vssd1 vssd1 vccd1 vccd1 LE_0B.config_data\[9\]
+ sky130_fd_sc_hd__dfrtp_1
X_2406_ SB0.route_sel\[100\] SB0.route_sel\[101\] vssd1 vssd1 vccd1 vccd1 _1036_ sky130_fd_sc_hd__or2_1
X_3524_ clknet_leaf_1_clk _0220_ net223 vssd1 vssd1 vccd1 vccd1 SB0.route_sel\[79\]
+ sky130_fd_sc_hd__dfstp_1
X_3455_ clknet_leaf_2_clk _0151_ net223 vssd1 vssd1 vccd1 vccd1 SB0.route_sel\[10\]
+ sky130_fd_sc_hd__dfstp_1
X_2337_ LEI0.config_data\[27\] net143 _0968_ LEI0.config_data\[28\] vssd1 vssd1 vccd1
+ vccd1 _0969_ sky130_fd_sc_hd__o211a_1
X_2199_ _0830_ _0831_ _0832_ vssd1 vssd1 vccd1 vccd1 _0833_ sky130_fd_sc_hd__o21a_1
X_2268_ net153 net149 LEI0.config_data\[3\] vssd1 vssd1 vccd1 vccd1 _0900_ sky130_fd_sc_hd__mux2_1
XFILLER_52_197 vssd1 vssd1 vccd1 vccd1 sky130_fd_sc_hd__fill_2
XFILLER_52_131 vssd1 vssd1 vccd1 vccd1 sky130_fd_sc_hd__fill_8
XTAP_TAPCELL_ROW_10_218 vssd1 vccd1 sky130_fd_sc_hd__tapvpwrvgnd_1
XFILLER_20_65 vssd1 vssd1 vccd1 vccd1 sky130_fd_sc_hd__fill_1
Xhold30 LEI0.config_data\[35\] vssd1 vssd1 vccd1 vccd1 net343 sky130_fd_sc_hd__dlygate4sd3_1
Xhold74 LEI0.config_data\[1\] vssd1 vssd1 vccd1 vccd1 net387 sky130_fd_sc_hd__dlygate4sd3_1
Xhold63 LE_0B.config_data\[8\] vssd1 vssd1 vccd1 vccd1 net376 sky130_fd_sc_hd__dlygate4sd3_1
Xhold52 LE_1A.config_data\[5\] vssd1 vssd1 vccd1 vccd1 net365 sky130_fd_sc_hd__dlygate4sd3_1
Xhold41 _0107_ vssd1 vssd1 vccd1 vccd1 net354 sky130_fd_sc_hd__dlygate4sd3_1
Xhold96 LE_0A.config_data\[13\] vssd1 vssd1 vccd1 vccd1 net409 sky130_fd_sc_hd__dlygate4sd3_1
Xhold85 _0018_ vssd1 vssd1 vccd1 vccd1 net398 sky130_fd_sc_hd__dlygate4sd3_1
XFILLER_28_183 vccd1 vssd1 vccd1 vssd1 sky130_ef_sc_hd__decap_40_12
XFILLER_31_337 vssd1 vssd1 vccd1 vccd1 sky130_fd_sc_hd__fill_8
XANTENNA_5 _1014_ vssd1 vssd1 vccd1 vccd1 sky130_fd_sc_hd__diode_2
X_3240_ CB_0.config_dataB\[6\] net187 net292 vssd1 vssd1 vccd1 vccd1 _0300_ sky130_fd_sc_hd__mux2_1
X_2122_ _0549_ _0744_ _0755_ CB_0.config_dataA\[7\] vssd1 vssd1 vccd1 vccd1 _0756_
+ sky130_fd_sc_hd__a211o_1
XTAP_TAPCELL_ROW_49_487 vssd1 vccd1 sky130_fd_sc_hd__tapvpwrvgnd_1
X_3171_ SB0.route_sel\[90\] SB0.route_sel\[89\] net276 vssd1 vssd1 vccd1 vccd1 _0231_
+ sky130_fd_sc_hd__mux2_1
X_2053_ SB0.route_sel\[20\] SB0.route_sel\[21\] net41 vssd1 vssd1 vccd1 vccd1 _0687_
+ sky130_fd_sc_hd__a21boi_1
X_2955_ net400 LEI0.config_data\[13\] net310 vssd1 vssd1 vccd1 vccd1 _0015_ sky130_fd_sc_hd__mux2_1
XFILLER_22_304 vssd1 vssd1 vccd1 vccd1 sky130_fd_sc_hd__fill_1
X_1768_ SB0.route_sel\[124\] SB0.route_sel\[125\] net39 vssd1 vssd1 vccd1 vccd1 _0402_
+ sky130_fd_sc_hd__a21boi_1
X_1837_ CB_1.config_dataA\[22\] CB_1.config_dataA\[23\] vssd1 vssd1 vccd1 vccd1 _0471_
+ sky130_fd_sc_hd__nand2b_2
X_2886_ SB0.route_sel\[44\] SB0.route_sel\[45\] vssd1 vssd1 vccd1 vccd1 _1458_ sky130_fd_sc_hd__nand2b_1
X_3507_ clknet_leaf_31_clk _0203_ net220 vssd1 vssd1 vccd1 vccd1 SB0.route_sel\[62\]
+ sky130_fd_sc_hd__dfstp_1
X_1906_ SB0.route_sel\[67\] SB0.route_sel\[66\] _0539_ _1541_ vssd1 vssd1 vccd1 vccd1
+ _0540_ sky130_fd_sc_hd__a31o_1
X_1699_ net184 vssd1 vssd1 vccd1 vccd1 _1581_ sky130_fd_sc_hd__inv_2
X_3369_ clknet_leaf_6_clk net329 net244 vssd1 vssd1 vccd1 vccd1 LE_0A.config_data\[14\]
+ sky130_fd_sc_hd__dfrtp_1
X_3438_ clknet_leaf_18_clk _0134_ net237 vssd1 vssd1 vccd1 vccd1 CB_1.config_dataB\[18\]
+ sky130_fd_sc_hd__dfstp_1
XFILLER_25_164 vssd1 vssd1 vccd1 vccd1 sky130_fd_sc_hd__fill_4
XFILLER_40_156 vssd1 vssd1 vccd1 vccd1 sky130_fd_sc_hd__fill_4
XFILLER_40_112 vssd1 vssd1 vccd1 vccd1 sky130_fd_sc_hd__fill_1
XTAP_TAPCELL_ROW_23_310 vssd1 vccd1 sky130_fd_sc_hd__tapvpwrvgnd_1
XFILLER_21_381 vssd1 vssd1 vccd1 vccd1 sky130_fd_sc_hd__fill_1
Xoutput75 net75 vssd1 vssd1 vccd1 vccd1 CBeast_out[13] sky130_fd_sc_hd__buf_2
Xoutput97 net97 vssd1 vssd1 vccd1 vccd1 CBnorth_out[4] sky130_fd_sc_hd__buf_2
XFILLER_56_83 vssd1 vssd1 vccd1 vccd1 sky130_fd_sc_hd__fill_1
Xoutput86 net86 vssd1 vssd1 vccd1 vccd1 CBeast_out[9] sky130_fd_sc_hd__buf_2
XTAP_TAPCELL_ROW_46_468 vssd1 vccd1 sky130_fd_sc_hd__tapvpwrvgnd_1
XFILLER_16_120 vssd1 vssd1 vccd1 vccd1 sky130_fd_sc_hd__fill_1
X_2740_ net203 _1365_ _1366_ _1367_ vssd1 vssd1 vccd1 vccd1 _1368_ sky130_fd_sc_hd__a31o_1
X_1622_ SB0.route_sel\[13\] vssd1 vssd1 vccd1 vccd1 _1504_ sky130_fd_sc_hd__inv_2
X_2671_ net210 _1096_ _1298_ net209 vssd1 vssd1 vccd1 vccd1 _1299_ sky130_fd_sc_hd__o211a_1