* NGSPICE file created from team_06.ext - technology: sky130A

* Black-box entry subcircuit for sky130_fd_sc_hd__fill_1 abstract view
.subckt sky130_fd_sc_hd__fill_1 VGND VNB VPB VPWR
.ends

* Black-box entry subcircuit for sky130_fd_sc_hd__fill_8 abstract view
.subckt sky130_fd_sc_hd__fill_8 VGND VNB VPB VPWR
.ends

* Black-box entry subcircuit for sky130_fd_sc_hd__tapvpwrvgnd_1 abstract view
.subckt sky130_fd_sc_hd__tapvpwrvgnd_1 VGND VPWR
.ends

* Black-box entry subcircuit for sky130_fd_sc_hd__o2bb2a_1 abstract view
.subckt sky130_fd_sc_hd__o2bb2a_1 A1_N A2_N B1 B2 VGND VNB VPB VPWR X
.ends

* Black-box entry subcircuit for sky130_fd_sc_hd__and4_1 abstract view
.subckt sky130_fd_sc_hd__and4_1 A B C D VGND VNB VPB VPWR X
.ends

* Black-box entry subcircuit for sky130_fd_sc_hd__fill_2 abstract view
.subckt sky130_fd_sc_hd__fill_2 VGND VNB VPB VPWR
.ends

* Black-box entry subcircuit for sky130_fd_sc_hd__diode_2 abstract view
.subckt sky130_fd_sc_hd__diode_2 DIODE VGND VNB VPB VPWR
.ends

* Black-box entry subcircuit for sky130_fd_sc_hd__fill_4 abstract view
.subckt sky130_fd_sc_hd__fill_4 VGND VNB VPB VPWR
.ends

* Black-box entry subcircuit for sky130_fd_sc_hd__a21o_1 abstract view
.subckt sky130_fd_sc_hd__a21o_1 A1 A2 B1 VGND VNB VPB VPWR X
.ends

* Black-box entry subcircuit for sky130_fd_sc_hd__dfrtp_1 abstract view
.subckt sky130_fd_sc_hd__dfrtp_1 CLK D RESET_B VGND VNB VPB VPWR Q
.ends

* Black-box entry subcircuit for sky130_fd_sc_hd__nor2_1 abstract view
.subckt sky130_fd_sc_hd__nor2_1 A B VGND VNB VPB VPWR Y
.ends

* Black-box entry subcircuit for sky130_fd_sc_hd__nand2_1 abstract view
.subckt sky130_fd_sc_hd__nand2_1 A B VGND VNB VPB VPWR Y
.ends

* Black-box entry subcircuit for sky130_fd_sc_hd__a31o_1 abstract view
.subckt sky130_fd_sc_hd__a31o_1 A1 A2 A3 B1 VGND VNB VPB VPWR X
.ends

* Black-box entry subcircuit for sky130_fd_sc_hd__buf_1 abstract view
.subckt sky130_fd_sc_hd__buf_1 A VGND VNB VPB VPWR X
.ends

* Black-box entry subcircuit for sky130_fd_sc_hd__mux2_1 abstract view
.subckt sky130_fd_sc_hd__mux2_1 A0 A1 S VGND VNB VPB VPWR X
.ends

* Black-box entry subcircuit for sky130_fd_sc_hd__clkbuf_4 abstract view
.subckt sky130_fd_sc_hd__clkbuf_4 A VGND VNB VPB VPWR X
.ends

* Black-box entry subcircuit for sky130_fd_sc_hd__dfxtp_1 abstract view
.subckt sky130_fd_sc_hd__dfxtp_1 CLK D VGND VNB VPB VPWR Q
.ends

* Black-box entry subcircuit for sky130_fd_sc_hd__buf_2 abstract view
.subckt sky130_fd_sc_hd__buf_2 A VGND VNB VPB VPWR X
.ends

* Black-box entry subcircuit for sky130_ef_sc_hd__decap_40_12 abstract view
.subckt sky130_ef_sc_hd__decap_40_12 VPWR VGND VPB VNB
.ends

* Black-box entry subcircuit for sky130_fd_sc_hd__dlygate4sd3_1 abstract view
.subckt sky130_fd_sc_hd__dlygate4sd3_1 A VGND VNB VPB VPWR X
.ends

* Black-box entry subcircuit for sky130_fd_sc_hd__o21ai_1 abstract view
.subckt sky130_fd_sc_hd__o21ai_1 A1 A2 B1 VGND VNB VPB VPWR Y
.ends

* Black-box entry subcircuit for sky130_fd_sc_hd__a22o_1 abstract view
.subckt sky130_fd_sc_hd__a22o_1 A1 A2 B1 B2 VGND VNB VPB VPWR X
.ends

* Black-box entry subcircuit for sky130_fd_sc_hd__a41oi_2 abstract view
.subckt sky130_fd_sc_hd__a41oi_2 A1 A2 A3 A4 B1 VGND VNB VPB VPWR Y
.ends

* Black-box entry subcircuit for sky130_fd_sc_hd__o22a_1 abstract view
.subckt sky130_fd_sc_hd__o22a_1 A1 A2 B1 B2 VGND VNB VPB VPWR X
.ends

* Black-box entry subcircuit for sky130_fd_sc_hd__o22ai_1 abstract view
.subckt sky130_fd_sc_hd__o22ai_1 A1 A2 B1 B2 VGND VNB VPB VPWR Y
.ends

* Black-box entry subcircuit for sky130_fd_sc_hd__o21a_1 abstract view
.subckt sky130_fd_sc_hd__o21a_1 A1 A2 B1 VGND VNB VPB VPWR X
.ends

* Black-box entry subcircuit for sky130_fd_sc_hd__nand4_1 abstract view
.subckt sky130_fd_sc_hd__nand4_1 A B C D VGND VNB VPB VPWR Y
.ends

* Black-box entry subcircuit for sky130_fd_sc_hd__and2b_1 abstract view
.subckt sky130_fd_sc_hd__and2b_1 A_N B VGND VNB VPB VPWR X
.ends

* Black-box entry subcircuit for sky130_fd_sc_hd__a211o_1 abstract view
.subckt sky130_fd_sc_hd__a211o_1 A1 A2 B1 C1 VGND VNB VPB VPWR X
.ends

* Black-box entry subcircuit for sky130_fd_sc_hd__a221o_1 abstract view
.subckt sky130_fd_sc_hd__a221o_1 A1 A2 B1 B2 C1 VGND VNB VPB VPWR X
.ends

* Black-box entry subcircuit for sky130_fd_sc_hd__a2bb2o_1 abstract view
.subckt sky130_fd_sc_hd__a2bb2o_1 A1_N A2_N B1 B2 VGND VNB VPB VPWR X
.ends

* Black-box entry subcircuit for sky130_fd_sc_hd__xor2_1 abstract view
.subckt sky130_fd_sc_hd__xor2_1 A B VGND VNB VPB VPWR X
.ends

* Black-box entry subcircuit for sky130_fd_sc_hd__conb_1 abstract view
.subckt sky130_fd_sc_hd__conb_1 VGND VNB VPB VPWR HI LO
.ends

* Black-box entry subcircuit for sky130_fd_sc_hd__a21oi_1 abstract view
.subckt sky130_fd_sc_hd__a21oi_1 A1 A2 B1 VGND VNB VPB VPWR Y
.ends

* Black-box entry subcircuit for sky130_fd_sc_hd__xnor2_1 abstract view
.subckt sky130_fd_sc_hd__xnor2_1 A B VGND VNB VPB VPWR Y
.ends

* Black-box entry subcircuit for sky130_fd_sc_hd__and2_1 abstract view
.subckt sky130_fd_sc_hd__and2_1 A B VGND VNB VPB VPWR X
.ends

* Black-box entry subcircuit for sky130_fd_sc_hd__or2_1 abstract view
.subckt sky130_fd_sc_hd__or2_1 A B VGND VNB VPB VPWR X
.ends

* Black-box entry subcircuit for sky130_fd_sc_hd__clkbuf_2 abstract view
.subckt sky130_fd_sc_hd__clkbuf_2 A VGND VNB VPB VPWR X
.ends

* Black-box entry subcircuit for sky130_fd_sc_hd__decap_3 abstract view
.subckt sky130_fd_sc_hd__decap_3 VGND VNB VPB VPWR
.ends

* Black-box entry subcircuit for sky130_fd_sc_hd__dfrtp_2 abstract view
.subckt sky130_fd_sc_hd__dfrtp_2 CLK D RESET_B VGND VNB VPB VPWR Q
.ends

* Black-box entry subcircuit for sky130_fd_sc_hd__or4_1 abstract view
.subckt sky130_fd_sc_hd__or4_1 A B C D VGND VNB VPB VPWR X
.ends

* Black-box entry subcircuit for sky130_fd_sc_hd__inv_2 abstract view
.subckt sky130_fd_sc_hd__inv_2 A VGND VNB VPB VPWR Y
.ends

* Black-box entry subcircuit for sky130_fd_sc_hd__a41o_1 abstract view
.subckt sky130_fd_sc_hd__a41o_1 A1 A2 A3 A4 B1 VGND VNB VPB VPWR X
.ends

* Black-box entry subcircuit for sky130_fd_sc_hd__o311a_1 abstract view
.subckt sky130_fd_sc_hd__o311a_1 A1 A2 A3 B1 C1 VGND VNB VPB VPWR X
.ends

* Black-box entry subcircuit for sky130_fd_sc_hd__o211a_1 abstract view
.subckt sky130_fd_sc_hd__o211a_1 A1 A2 B1 C1 VGND VNB VPB VPWR X
.ends

* Black-box entry subcircuit for sky130_fd_sc_hd__nand2b_1 abstract view
.subckt sky130_fd_sc_hd__nand2b_1 A_N B VGND VNB VPB VPWR Y
.ends

* Black-box entry subcircuit for sky130_fd_sc_hd__a32o_1 abstract view
.subckt sky130_fd_sc_hd__a32o_1 A1 A2 A3 B1 B2 VGND VNB VPB VPWR X
.ends

* Black-box entry subcircuit for sky130_fd_sc_hd__nand3_1 abstract view
.subckt sky130_fd_sc_hd__nand3_1 A B C VGND VNB VPB VPWR Y
.ends

* Black-box entry subcircuit for sky130_fd_sc_hd__nand3b_2 abstract view
.subckt sky130_fd_sc_hd__nand3b_2 A_N B C VGND VNB VPB VPWR Y
.ends

* Black-box entry subcircuit for sky130_fd_sc_hd__dfrtp_4 abstract view
.subckt sky130_fd_sc_hd__dfrtp_4 CLK D RESET_B VGND VNB VPB VPWR Q
.ends

* Black-box entry subcircuit for sky130_fd_sc_hd__and3b_1 abstract view
.subckt sky130_fd_sc_hd__and3b_1 A_N B C VGND VNB VPB VPWR X
.ends

* Black-box entry subcircuit for sky130_fd_sc_hd__o32a_1 abstract view
.subckt sky130_fd_sc_hd__o32a_1 A1 A2 A3 B1 B2 VGND VNB VPB VPWR X
.ends

* Black-box entry subcircuit for sky130_fd_sc_hd__and3_1 abstract view
.subckt sky130_fd_sc_hd__and3_1 A B C VGND VNB VPB VPWR X
.ends

* Black-box entry subcircuit for sky130_fd_sc_hd__or4b_4 abstract view
.subckt sky130_fd_sc_hd__or4b_4 A B C D_N VGND VNB VPB VPWR X
.ends

* Black-box entry subcircuit for sky130_fd_sc_hd__or3b_1 abstract view
.subckt sky130_fd_sc_hd__or3b_1 A B C_N VGND VNB VPB VPWR X
.ends

* Black-box entry subcircuit for sky130_fd_sc_hd__or4b_1 abstract view
.subckt sky130_fd_sc_hd__or4b_1 A B C D_N VGND VNB VPB VPWR X
.ends

* Black-box entry subcircuit for sky130_fd_sc_hd__o21ai_4 abstract view
.subckt sky130_fd_sc_hd__o21ai_4 A1 A2 B1 VGND VNB VPB VPWR Y
.ends

* Black-box entry subcircuit for sky130_fd_sc_hd__o21ai_2 abstract view
.subckt sky130_fd_sc_hd__o21ai_2 A1 A2 B1 VGND VNB VPB VPWR Y
.ends

* Black-box entry subcircuit for sky130_fd_sc_hd__clkbuf_8 abstract view
.subckt sky130_fd_sc_hd__clkbuf_8 A VGND VNB VPB VPWR X
.ends

* Black-box entry subcircuit for sky130_fd_sc_hd__a31oi_1 abstract view
.subckt sky130_fd_sc_hd__a31oi_1 A1 A2 A3 B1 VGND VNB VPB VPWR Y
.ends

* Black-box entry subcircuit for sky130_fd_sc_hd__a21boi_1 abstract view
.subckt sky130_fd_sc_hd__a21boi_1 A1 A2 B1_N VGND VNB VPB VPWR Y
.ends

* Black-box entry subcircuit for sky130_fd_sc_hd__or4b_2 abstract view
.subckt sky130_fd_sc_hd__or4b_2 A B C D_N VGND VNB VPB VPWR X
.ends

* Black-box entry subcircuit for sky130_fd_sc_hd__nor2_2 abstract view
.subckt sky130_fd_sc_hd__nor2_2 A B VGND VNB VPB VPWR Y
.ends

* Black-box entry subcircuit for sky130_fd_sc_hd__inv_8 abstract view
.subckt sky130_fd_sc_hd__inv_8 A VGND VNB VPB VPWR Y
.ends

* Black-box entry subcircuit for sky130_fd_sc_hd__o21ba_1 abstract view
.subckt sky130_fd_sc_hd__o21ba_1 A1 A2 B1_N VGND VNB VPB VPWR X
.ends

* Black-box entry subcircuit for sky130_fd_sc_hd__or3_1 abstract view
.subckt sky130_fd_sc_hd__or3_1 A B C VGND VNB VPB VPWR X
.ends

* Black-box entry subcircuit for sky130_fd_sc_hd__o31a_1 abstract view
.subckt sky130_fd_sc_hd__o31a_1 A1 A2 A3 B1 VGND VNB VPB VPWR X
.ends

* Black-box entry subcircuit for sky130_fd_sc_hd__a21oi_2 abstract view
.subckt sky130_fd_sc_hd__a21oi_2 A1 A2 B1 VGND VNB VPB VPWR Y
.ends

* Black-box entry subcircuit for sky130_fd_sc_hd__clkinv_4 abstract view
.subckt sky130_fd_sc_hd__clkinv_4 A VGND VNB VPB VPWR Y
.ends

* Black-box entry subcircuit for sky130_fd_sc_hd__inv_6 abstract view
.subckt sky130_fd_sc_hd__inv_6 A VGND VNB VPB VPWR Y
.ends

* Black-box entry subcircuit for sky130_fd_sc_hd__nand2_2 abstract view
.subckt sky130_fd_sc_hd__nand2_2 A B VGND VNB VPB VPWR Y
.ends

* Black-box entry subcircuit for sky130_fd_sc_hd__bufinv_16 abstract view
.subckt sky130_fd_sc_hd__bufinv_16 A VGND VNB VPB VPWR Y
.ends

* Black-box entry subcircuit for sky130_fd_sc_hd__o31ai_4 abstract view
.subckt sky130_fd_sc_hd__o31ai_4 A1 A2 A3 B1 VGND VNB VPB VPWR Y
.ends

* Black-box entry subcircuit for sky130_fd_sc_hd__nor3_1 abstract view
.subckt sky130_fd_sc_hd__nor3_1 A B C VGND VNB VPB VPWR Y
.ends

* Black-box entry subcircuit for sky130_fd_sc_hd__a21bo_1 abstract view
.subckt sky130_fd_sc_hd__a21bo_1 A1 A2 B1_N VGND VNB VPB VPWR X
.ends

* Black-box entry subcircuit for sky130_fd_sc_hd__clkbuf_16 abstract view
.subckt sky130_fd_sc_hd__clkbuf_16 A VGND VNB VPB VPWR X
.ends

* Black-box entry subcircuit for sky130_fd_sc_hd__or3_2 abstract view
.subckt sky130_fd_sc_hd__or3_2 A B C VGND VNB VPB VPWR X
.ends

* Black-box entry subcircuit for sky130_fd_sc_hd__clkinv_2 abstract view
.subckt sky130_fd_sc_hd__clkinv_2 A VGND VNB VPB VPWR Y
.ends

* Black-box entry subcircuit for sky130_fd_sc_hd__o221a_1 abstract view
.subckt sky130_fd_sc_hd__o221a_1 A1 A2 B1 B2 C1 VGND VNB VPB VPWR X
.ends

* Black-box entry subcircuit for sky130_fd_sc_hd__dfstp_1 abstract view
.subckt sky130_fd_sc_hd__dfstp_1 CLK D SET_B VGND VNB VPB VPWR Q
.ends

* Black-box entry subcircuit for sky130_fd_sc_hd__nor3_4 abstract view
.subckt sky130_fd_sc_hd__nor3_4 A B C VGND VNB VPB VPWR Y
.ends

* Black-box entry subcircuit for sky130_fd_sc_hd__inv_4 abstract view
.subckt sky130_fd_sc_hd__inv_4 A VGND VNB VPB VPWR Y
.ends

* Black-box entry subcircuit for sky130_fd_sc_hd__clkbuf_1 abstract view
.subckt sky130_fd_sc_hd__clkbuf_1 A VGND VNB VPB VPWR X
.ends

* Black-box entry subcircuit for sky130_fd_sc_hd__nor4_1 abstract view
.subckt sky130_fd_sc_hd__nor4_1 A B C D VGND VNB VPB VPWR Y
.ends

* Black-box entry subcircuit for sky130_fd_sc_hd__inv_12 abstract view
.subckt sky130_fd_sc_hd__inv_12 A VGND VNB VPB VPWR Y
.ends

* Black-box entry subcircuit for sky130_fd_sc_hd__nand2_4 abstract view
.subckt sky130_fd_sc_hd__nand2_4 A B VGND VNB VPB VPWR Y
.ends

* Black-box entry subcircuit for sky130_fd_sc_hd__dlymetal6s2s_1 abstract view
.subckt sky130_fd_sc_hd__dlymetal6s2s_1 A VGND VNB VPB VPWR X
.ends

* Black-box entry subcircuit for sky130_fd_sc_hd__o21bai_1 abstract view
.subckt sky130_fd_sc_hd__o21bai_1 A1 A2 B1_N VGND VNB VPB VPWR Y
.ends

* Black-box entry subcircuit for sky130_fd_sc_hd__a22oi_2 abstract view
.subckt sky130_fd_sc_hd__a22oi_2 A1 A2 B1 B2 VGND VNB VPB VPWR Y
.ends

* Black-box entry subcircuit for sky130_fd_sc_hd__or3b_2 abstract view
.subckt sky130_fd_sc_hd__or3b_2 A B C_N VGND VNB VPB VPWR X
.ends

* Black-box entry subcircuit for sky130_fd_sc_hd__a31oi_2 abstract view
.subckt sky130_fd_sc_hd__a31oi_2 A1 A2 A3 B1 VGND VNB VPB VPWR Y
.ends

* Black-box entry subcircuit for sky130_fd_sc_hd__or4bb_1 abstract view
.subckt sky130_fd_sc_hd__or4bb_1 A B C_N D_N VGND VNB VPB VPWR X
.ends

* Black-box entry subcircuit for sky130_fd_sc_hd__and4b_1 abstract view
.subckt sky130_fd_sc_hd__and4b_1 A_N B C D VGND VNB VPB VPWR X
.ends

* Black-box entry subcircuit for sky130_fd_sc_hd__and4bb_2 abstract view
.subckt sky130_fd_sc_hd__and4bb_2 A_N B_N C D VGND VNB VPB VPWR X
.ends

* Black-box entry subcircuit for sky130_fd_sc_hd__clkinv_8 abstract view
.subckt sky130_fd_sc_hd__clkinv_8 A VGND VNB VPB VPWR Y
.ends

* Black-box entry subcircuit for sky130_fd_sc_hd__nand3b_4 abstract view
.subckt sky130_fd_sc_hd__nand3b_4 A_N B C VGND VNB VPB VPWR Y
.ends

* Black-box entry subcircuit for sky130_fd_sc_hd__a22oi_1 abstract view
.subckt sky130_fd_sc_hd__a22oi_1 A1 A2 B1 B2 VGND VNB VPB VPWR Y
.ends

* Black-box entry subcircuit for sky130_fd_sc_hd__nor3b_2 abstract view
.subckt sky130_fd_sc_hd__nor3b_2 A B C_N VGND VNB VPB VPWR Y
.ends

* Black-box entry subcircuit for sky130_fd_sc_hd__o2111a_1 abstract view
.subckt sky130_fd_sc_hd__o2111a_1 A1 A2 B1 C1 D1 VGND VNB VPB VPWR X
.ends

* Black-box entry subcircuit for sky130_fd_sc_hd__and2_2 abstract view
.subckt sky130_fd_sc_hd__and2_2 A B VGND VNB VPB VPWR X
.ends

* Black-box entry subcircuit for sky130_fd_sc_hd__and4_2 abstract view
.subckt sky130_fd_sc_hd__and4_2 A B C D VGND VNB VPB VPWR X
.ends

* Black-box entry subcircuit for sky130_fd_sc_hd__a221oi_1 abstract view
.subckt sky130_fd_sc_hd__a221oi_1 A1 A2 B1 B2 C1 VGND VNB VPB VPWR Y
.ends

* Black-box entry subcircuit for sky130_fd_sc_hd__or2_2 abstract view
.subckt sky130_fd_sc_hd__or2_2 A B VGND VNB VPB VPWR X
.ends

* Black-box entry subcircuit for sky130_fd_sc_hd__or4_2 abstract view
.subckt sky130_fd_sc_hd__or4_2 A B C D VGND VNB VPB VPWR X
.ends

* Black-box entry subcircuit for sky130_fd_sc_hd__a211oi_1 abstract view
.subckt sky130_fd_sc_hd__a211oi_1 A1 A2 B1 C1 VGND VNB VPB VPWR Y
.ends

* Black-box entry subcircuit for sky130_fd_sc_hd__or2_4 abstract view
.subckt sky130_fd_sc_hd__or2_4 A B VGND VNB VPB VPWR X
.ends

* Black-box entry subcircuit for sky130_fd_sc_hd__o2111ai_1 abstract view
.subckt sky130_fd_sc_hd__o2111ai_1 A1 A2 B1 C1 D1 VGND VNB VPB VPWR Y
.ends

* Black-box entry subcircuit for sky130_fd_sc_hd__o211ai_1 abstract view
.subckt sky130_fd_sc_hd__o211ai_1 A1 A2 B1 C1 VGND VNB VPB VPWR Y
.ends

.subckt team_06 clk en gpio_in[0] gpio_in[10] gpio_in[11] gpio_in[12] gpio_in[13]
+ gpio_in[14] gpio_in[15] gpio_in[16] gpio_in[17] gpio_in[18] gpio_in[19] gpio_in[1]
+ gpio_in[20] gpio_in[21] gpio_in[22] gpio_in[23] gpio_in[24] gpio_in[25] gpio_in[26]
+ gpio_in[27] gpio_in[28] gpio_in[29] gpio_in[2] gpio_in[30] gpio_in[31] gpio_in[32]
+ gpio_in[33] gpio_in[3] gpio_in[4] gpio_in[5] gpio_in[6] gpio_in[7] gpio_in[8] gpio_in[9]
+ gpio_oeb[0] gpio_oeb[10] gpio_oeb[11] gpio_oeb[12] gpio_oeb[13] gpio_oeb[14] gpio_oeb[15]
+ gpio_oeb[16] gpio_oeb[17] gpio_oeb[18] gpio_oeb[19] gpio_oeb[1] gpio_oeb[20] gpio_oeb[21]
+ gpio_oeb[22] gpio_oeb[23] gpio_oeb[24] gpio_oeb[25] gpio_oeb[26] gpio_oeb[27] gpio_oeb[28]
+ gpio_oeb[29] gpio_oeb[2] gpio_oeb[30] gpio_oeb[31] gpio_oeb[32] gpio_oeb[33] gpio_oeb[3]
+ gpio_oeb[4] gpio_oeb[5] gpio_oeb[6] gpio_oeb[7] gpio_oeb[8] gpio_oeb[9] gpio_out[0]
+ gpio_out[10] gpio_out[11] gpio_out[12] gpio_out[13] gpio_out[14] gpio_out[15] gpio_out[16]
+ gpio_out[17] gpio_out[18] gpio_out[19] gpio_out[1] gpio_out[20] gpio_out[21] gpio_out[22]
+ gpio_out[23] gpio_out[24] gpio_out[25] gpio_out[26] gpio_out[27] gpio_out[28] gpio_out[29]
+ gpio_out[2] gpio_out[30] gpio_out[31] gpio_out[32] gpio_out[33] gpio_out[3] gpio_out[4]
+ gpio_out[5] gpio_out[6] gpio_out[7] gpio_out[8] gpio_out[9] nrst vccd1 vssd1
XFILLER_54_203 vssd1 vssd1 vccd1 vccd1 sky130_fd_sc_hd__fill_1
XFILLER_39_255 vssd1 vssd1 vccd1 vccd1 sky130_fd_sc_hd__fill_8
XTAP_TAPCELL_ROW_37_401 vssd1 vccd1 sky130_fd_sc_hd__tapvpwrvgnd_1
X_2106_ CALC_INST.input_ctrl_inst.decoded_key\[0\] _1084_ _1153_ _1065_ vssd1 vssd1
+ vccd1 vccd1 _1154_ sky130_fd_sc_hd__o2bb2a_1
XFILLER_27_406 vssd1 vssd1 vccd1 vccd1 sky130_fd_sc_hd__fill_1
X_2037_ CALC_INST.gencon_inst.mult_calc.count.GENERATE_ADDER\[6\].thingy.in1 CALC_INST.gencon_inst.mult_calc.count.GENERATE_ADDER\[5\].thingy.in1
+ CALC_INST.gencon_inst.mult_calc.count.GENERATE_ADDER\[4\].thingy.in1 _1089_ vssd1
+ vssd1 vccd1 vccd1 _1091_ sky130_fd_sc_hd__and4_1
XFILLER_52_29 vssd1 vssd1 vccd1 vccd1 sky130_fd_sc_hd__fill_2
XANTENNA_fanout75_A _1145_ vssd1 vssd1 vccd1 vccd1 sky130_fd_sc_hd__diode_2
XFILLER_45_225 vssd1 vssd1 vccd1 vccd1 sky130_fd_sc_hd__fill_2
XFILLER_26_85 vssd1 vssd1 vccd1 vccd1 sky130_fd_sc_hd__fill_4
XFILLER_42_73 vssd1 vssd1 vccd1 vccd1 sky130_fd_sc_hd__fill_1
X_1270_ CALC_INST.gencon_inst.mult_calc.out\[13\] net55 _0627_ vssd1 vssd1 vccd1 vccd1
+ _0628_ sky130_fd_sc_hd__a21o_1
XANTENNA__1684__A1 net100 vssd1 vssd1 vccd1 vccd1 sky130_fd_sc_hd__diode_2
XANTENNA__1684__B2 net86 vssd1 vssd1 vccd1 vccd1 sky130_fd_sc_hd__diode_2
XFILLER_51_217 vssd1 vssd1 vccd1 vccd1 sky130_fd_sc_hd__fill_4
XFILLER_44_280 vssd1 vssd1 vccd1 vccd1 sky130_fd_sc_hd__fill_2
X_2724_ clknet_leaf_22_clk _0262_ net143 vssd1 vssd1 vccd1 vccd1 CALC_INST.gencon_inst.mult_calc.out\[9\]
+ sky130_fd_sc_hd__dfrtp_1
X_1606_ CALC_INST.gencon_inst.mult_calc.main.GENERATE_ADDER\[1\].thingy.in2 CALC_INST.gencon_inst.mult_calc.main.GENERATE_ADDER\[1\].thingy.in1
+ vssd1 vssd1 vccd1 vccd1 _0847_ sky130_fd_sc_hd__nor2_1
X_2655_ clknet_leaf_31_clk _0193_ net122 vssd1 vssd1 vccd1 vccd1 CALC_INST.gencon_inst.mult_calc.adderSave\[1\]
+ sky130_fd_sc_hd__dfrtp_1
X_1468_ net106 CALC_INST.gencon_inst.add_calc.main.in2\[5\] vssd1 vssd1 vccd1 vccd1
+ _0727_ sky130_fd_sc_hd__nand2_1
X_1537_ net31 _0788_ _0790_ net81 vssd1 vssd1 vccd1 vccd1 _0792_ sky130_fd_sc_hd__a31o_1
Xfanout105 net106 vssd1 vssd1 vccd1 vccd1 net105 sky130_fd_sc_hd__buf_1
X_1399_ net406 _0674_ net109 vssd1 vssd1 vccd1 vccd1 _0158_ sky130_fd_sc_hd__mux2_1
Xfanout127 net132 vssd1 vssd1 vccd1 vccd1 net127 sky130_fd_sc_hd__clkbuf_4
XFILLER_47_29 vssd1 vssd1 vccd1 vccd1 sky130_fd_sc_hd__fill_2
X_2586_ clknet_leaf_7_clk net206 vssd1 vssd1 vccd1 vccd1 CALC_INST.gencon_inst.prev_operator_input\[1\]
+ sky130_fd_sc_hd__dfxtp_1
Xfanout149 net150 vssd1 vssd1 vccd1 vccd1 net149 sky130_fd_sc_hd__clkbuf_4
Xfanout138 net139 vssd1 vssd1 vccd1 vccd1 net138 sky130_fd_sc_hd__buf_2
Xfanout116 net123 vssd1 vssd1 vccd1 vccd1 net116 sky130_fd_sc_hd__buf_2
XTAP_TAPCELL_ROW_40_418 vssd1 vccd1 sky130_fd_sc_hd__tapvpwrvgnd_1
XFILLER_6_129 vssd1 vssd1 vccd1 vccd1 sky130_fd_sc_hd__fill_4
XFILLER_12_32 vccd1 vssd1 vccd1 vssd1 sky130_ef_sc_hd__decap_40_12
Xhold181 CALC_INST.gencon_inst.add_calc.main.GENERATE_ADDER\[2\].thingy.in1 vssd1
+ vssd1 vccd1 vccd1 net377 sky130_fd_sc_hd__dlygate4sd3_1
Xhold170 CALC_INST.gencon_inst.add_calc.main.in2\[4\] vssd1 vssd1 vccd1 vccd1 net366
+ sky130_fd_sc_hd__dlygate4sd3_1
Xhold192 CALC_INST.input_ctrl_inst.scan_timer\[13\] vssd1 vssd1 vccd1 vccd1 net388
+ sky130_fd_sc_hd__dlygate4sd3_1
XFILLER_58_361 vssd1 vssd1 vccd1 vccd1 sky130_fd_sc_hd__fill_2
XTAP_TAPCELL_ROW_5_173 vssd1 vccd1 sky130_fd_sc_hd__tapvpwrvgnd_1
XANTENNA_clkbuf_leaf_31_clk_A clknet_2_0__leaf_clk vssd1 vssd1 vccd1 vccd1 sky130_fd_sc_hd__diode_2
XFILLER_53_50 vssd1 vssd1 vccd1 vccd1 sky130_fd_sc_hd__fill_1
XANTENNA__2382__X _0520_ vssd1 vssd1 vccd1 vccd1 sky130_fd_sc_hd__diode_2
XFILLER_33_206 vssd1 vssd1 vccd1 vccd1 sky130_fd_sc_hd__fill_1
X_2440_ CALC_INST.gencon_inst.operand1\[9\] _0564_ _0519_ vssd1 vssd1 vccd1 vccd1
+ _0569_ sky130_fd_sc_hd__o21ai_1
X_1322_ CALC_INST.gencon_inst.operand2\[3\] net244 net51 vssd1 vssd1 vccd1 vccd1 _0109_
+ sky130_fd_sc_hd__mux2_1
X_1253_ CALC_INST.gencon_inst.ALU_out\[8\] net69 _0615_ vssd1 vssd1 vccd1 vccd1 _0616_
+ sky130_fd_sc_hd__a21o_1
X_2371_ CALC_INST.gencon_inst.operand2\[12\] _0511_ net34 vssd1 vssd1 vccd1 vccd1
+ _0044_ sky130_fd_sc_hd__mux2_1
XANTENNA__1340__C net112 vssd1 vssd1 vccd1 vccd1 sky130_fd_sc_hd__diode_2
XTAP_TAPCELL_ROW_19_275 vssd1 vccd1 sky130_fd_sc_hd__tapvpwrvgnd_1
XTAP_TAPCELL_ROW_62_576 vssd1 vccd1 sky130_fd_sc_hd__tapvpwrvgnd_1
XANTENNA_fanout125_A net132 vssd1 vssd1 vccd1 vccd1 sky130_fd_sc_hd__diode_2
X_2638_ clknet_leaf_10_clk _0176_ net130 vssd1 vssd1 vccd1 vccd1 CALC_INST.gencon_inst.ALU_out\[2\]
+ sky130_fd_sc_hd__dfrtp_1
X_2569_ clknet_leaf_11_clk _0107_ vssd1 vssd1 vccd1 vccd1 CALC_INST.gencon_inst.ALU_in2\[1\]
+ sky130_fd_sc_hd__dfxtp_1
XANTENNA__2385__A2 net58 vssd1 vssd1 vccd1 vccd1 sky130_fd_sc_hd__diode_2
X_2707_ clknet_leaf_22_clk _0245_ net143 vssd1 vssd1 vccd1 vccd1 CALC_INST.gencon_inst.mult_calc.main.GENERATE_ADDER\[7\].thingy.in2
+ sky130_fd_sc_hd__dfrtp_1
XFILLER_59_125 vccd1 vssd1 vccd1 vssd1 sky130_ef_sc_hd__decap_40_12
XFILLER_59_147 vssd1 vssd1 vccd1 vccd1 sky130_fd_sc_hd__fill_1
XTAP_TAPCELL_ROW_2_154 vssd1 vccd1 sky130_fd_sc_hd__tapvpwrvgnd_1
XFILLER_55_353 vssd1 vssd1 vccd1 vccd1 sky130_fd_sc_hd__fill_2
XTAP_TAPCELL_ROW_53_510 vssd1 vccd1 sky130_fd_sc_hd__tapvpwrvgnd_1
XFILLER_15_217 vssd1 vssd1 vccd1 vccd1 sky130_fd_sc_hd__fill_4
XFILLER_23_75 vssd1 vssd1 vccd1 vccd1 sky130_fd_sc_hd__fill_1
XFILLER_38_309 vssd1 vssd1 vccd1 vccd1 sky130_fd_sc_hd__fill_1
XFILLER_2_187 vssd1 vssd1 vccd1 vccd1 sky130_fd_sc_hd__fill_1
XFILLER_2_132 vssd1 vssd1 vccd1 vccd1 sky130_fd_sc_hd__fill_2
XFILLER_2_110 vssd1 vssd1 vccd1 vccd1 sky130_fd_sc_hd__fill_1
XFILLER_61_301 vccd1 vssd1 vccd1 vssd1 sky130_ef_sc_hd__decap_40_12
XFILLER_48_83 vssd1 vssd1 vccd1 vccd1 sky130_fd_sc_hd__fill_1
XFILLER_0_57 vccd1 vssd1 vccd1 vssd1 sky130_ef_sc_hd__decap_40_12
XANTENNA__1272__C1 _0590_ vssd1 vssd1 vccd1 vccd1 sky130_fd_sc_hd__diode_2
X_1940_ CALC_INST.gencon_inst.operator_input\[0\] net111 CALC_INST.input_ctrl_inst.decoded_key\[2\]
+ _1020_ vssd1 vssd1 vccd1 vccd1 _0353_ sky130_fd_sc_hd__a22o_1
X_1871_ CALC_INST.input_ctrl_inst.col_index\[21\] CALC_INST.input_ctrl_inst.col_index\[20\]
+ CALC_INST.input_ctrl_inst.col_index\[22\] _0974_ _0947_ vssd1 vssd1 vccd1 vccd1
+ _0981_ sky130_fd_sc_hd__a41oi_2
XFILLER_9_11 vssd1 vssd1 vccd1 vccd1 sky130_fd_sc_hd__fill_2
XFILLER_9_66 vssd1 vssd1 vccd1 vccd1 sky130_fd_sc_hd__fill_8
XFILLER_50_3 vccd1 vssd1 vccd1 vssd1 sky130_ef_sc_hd__decap_40_12
X_2423_ CALC_INST.gencon_inst.operand1\[5\] net42 _0554_ _0555_ vssd1 vssd1 vccd1
+ vccd1 _0052_ sky130_fd_sc_hd__o22a_1
X_1305_ CALC_INST.gencon_inst.operand1\[2\] net261 net51 vssd1 vssd1 vccd1 vccd1 _0092_
+ sky130_fd_sc_hd__mux2_1
X_2354_ CALC_INST.gencon_inst.operand2\[8\] _0498_ net35 vssd1 vssd1 vccd1 vccd1 _0040_
+ sky130_fd_sc_hd__mux2_1
X_2285_ _0443_ _0445_ _0446_ CALC_INST.input_ctrl_inst.col_index\[27\] vssd1 vssd1
+ vccd1 vccd1 _0447_ sky130_fd_sc_hd__o22ai_1
XFILLER_60_29 vssd1 vssd1 vccd1 vccd1 sky130_fd_sc_hd__fill_8
XFILLER_60_18 vssd1 vssd1 vccd1 vccd1 sky130_fd_sc_hd__fill_4
XANTENNA__1869__B2 net63 vssd1 vssd1 vccd1 vccd1 sky130_fd_sc_hd__diode_2
XFILLER_62_109 vccd1 vssd1 vccd1 vssd1 sky130_ef_sc_hd__decap_40_12
XFILLER_47_117 vssd1 vssd1 vccd1 vccd1 sky130_fd_sc_hd__fill_2
XFILLER_18_75 vssd1 vssd1 vccd1 vccd1 sky130_fd_sc_hd__fill_1
XFILLER_34_52 vssd1 vssd1 vccd1 vccd1 sky130_fd_sc_hd__fill_1
XFILLER_50_40 vssd1 vssd1 vccd1 vccd1 sky130_fd_sc_hd__fill_2
XFILLER_38_139 vssd1 vssd1 vccd1 vccd1 sky130_fd_sc_hd__fill_1
XFILLER_38_128 vssd1 vssd1 vccd1 vccd1 sky130_fd_sc_hd__fill_2
X_2070_ CALC_INST.gencon_inst.mult_calc.compCount.in2\[8\] _1119_ _1123_ CALC_INST.gencon_inst.mult_calc.compCount.in2\[9\]
+ vssd1 vssd1 vccd1 vccd1 _1124_ sky130_fd_sc_hd__a22o_1
XFILLER_34_345 vssd1 vssd1 vccd1 vccd1 sky130_fd_sc_hd__fill_1
X_1923_ net111 net271 _1004_ _1007_ vssd1 vssd1 vccd1 vccd1 _0349_ sky130_fd_sc_hd__a22o_1
X_1785_ CALC_INST.gencon_inst.operand2\[9\] net48 net38 net323 vssd1 vssd1 vccd1 vccd1
+ _0295_ sky130_fd_sc_hd__a22o_1
X_1854_ CALC_INST.input_ctrl_inst.col_index\[17\] net62 _0945_ _0968_ vssd1 vssd1
+ vccd1 vccd1 _0969_ sky130_fd_sc_hd__o2bb2a_1
X_2406_ CALC_INST.gencon_inst.operand1\[2\] net42 _0540_ _0541_ vssd1 vssd1 vccd1
+ vccd1 _0049_ sky130_fd_sc_hd__o22a_1
X_2199_ net45 _1225_ CALC_INST.input_ctrl_inst.debounce_cnt\[17\] vssd1 vssd1 vccd1
+ vccd1 _1226_ sky130_fd_sc_hd__o21a_1
X_2337_ CALC_INST.gencon_inst.operand2\[5\] _0482_ vssd1 vssd1 vccd1 vccd1 _0485_
+ sky130_fd_sc_hd__nand2_1
XTAP_TAPCELL_ROW_27_329 vssd1 vccd1 sky130_fd_sc_hd__tapvpwrvgnd_1
XFILLER_25_301 vssd1 vssd1 vccd1 vccd1 sky130_fd_sc_hd__fill_2
X_2268_ CALC_INST.input_ctrl_inst.col_index\[5\] CALC_INST.input_ctrl_inst.col_index\[4\]
+ CALC_INST.input_ctrl_inst.col_index\[7\] CALC_INST.input_ctrl_inst.col_index\[6\]
+ vssd1 vssd1 vccd1 vccd1 _0430_ sky130_fd_sc_hd__nand4_1
XTAP_TAPCELL_ROW_35_384 vssd1 vccd1 sky130_fd_sc_hd__tapvpwrvgnd_1
XTAP_TAPCELL_ROW_10_207 vssd1 vccd1 sky130_fd_sc_hd__tapvpwrvgnd_1
XFILLER_20_54 vssd1 vssd1 vccd1 vccd1 sky130_fd_sc_hd__fill_2
Xhold63 CALC_INST.gencon_inst.ALU_in1\[8\] vssd1 vssd1 vccd1 vccd1 net259 sky130_fd_sc_hd__dlygate4sd3_1
Xhold74 CALC_INST.input_ctrl_inst.read_input_flag vssd1 vssd1 vccd1 vccd1 net270 sky130_fd_sc_hd__dlygate4sd3_1
Xhold30 CALC_INST.gencon_inst.mult_calc.INn1\[8\] vssd1 vssd1 vccd1 vccd1 net226 sky130_fd_sc_hd__dlygate4sd3_1
Xhold41 CALC_INST.gencon_inst.mult_calc.main.a0.in1 vssd1 vssd1 vccd1 vccd1 net237
+ sky130_fd_sc_hd__dlygate4sd3_1
Xhold52 _0342_ vssd1 vssd1 vccd1 vccd1 net248 sky130_fd_sc_hd__dlygate4sd3_1
XFILLER_31_304 vssd1 vssd1 vccd1 vccd1 sky130_fd_sc_hd__fill_2
Xhold85 CALC_INST.gencon_inst.mult_calc.countSave\[4\] vssd1 vssd1 vccd1 vccd1 net281
+ sky130_fd_sc_hd__dlygate4sd3_1
Xhold96 CALC_INST.gencon_inst.mult_calc.countSave\[12\] vssd1 vssd1 vccd1 vccd1 net292
+ sky130_fd_sc_hd__dlygate4sd3_1
XFILLER_6_34 vssd1 vssd1 vccd1 vccd1 sky130_fd_sc_hd__fill_8
X_1570_ _0704_ _0705_ vssd1 vssd1 vccd1 vccd1 _0819_ sky130_fd_sc_hd__and2b_1
X_2122_ CALC_INST.input_ctrl_inst.decoded_key\[3\] _1084_ _1148_ _1166_ vssd1 vssd1
+ vccd1 vccd1 _0030_ sky130_fd_sc_hd__a211o_1
X_2053_ CALC_INST.gencon_inst.mult_calc.compCount.in2\[3\] _1099_ _1102_ _1105_ _1106_
+ vssd1 vssd1 vccd1 vccd1 _1107_ sky130_fd_sc_hd__a221o_1
XTAP_TAPCELL_ROW_32_365 vssd1 vccd1 sky130_fd_sc_hd__tapvpwrvgnd_1
XANTENNA__1769__B1 net86 vssd1 vssd1 vccd1 vccd1 sky130_fd_sc_hd__diode_2
X_1906_ net91 net303 net75 CALC_INST.gencon_inst.mult_calc.count.GENERATE_ADDER\[3\].thingy.in1
+ vssd1 vssd1 vccd1 vccd1 _0337_ sky130_fd_sc_hd__a22o_1
X_1768_ net82 _1116_ net84 net267 vssd1 vssd1 vccd1 vccd1 _0278_ sky130_fd_sc_hd__a2bb2o_1
X_1837_ net427 _0958_ vssd1 vssd1 vccd1 vccd1 _0312_ sky130_fd_sc_hd__xor2_1
XFILLER_57_223 vssd1 vssd1 vccd1 vccd1 sky130_fd_sc_hd__fill_1
X_1699_ net379 CALC_INST.gencon_inst.mult_calc.INn2\[4\] net96 vssd1 vssd1 vccd1 vccd1
+ _0211_ sky130_fd_sc_hd__mux2_1
XFILLER_15_54 vssd1 vssd1 vccd1 vccd1 sky130_fd_sc_hd__fill_2
Xteam_06_165 vssd1 vssd1 vccd1 vccd1 team_06_165/HI gpio_out[2] sky130_fd_sc_hd__conb_1
Xoutput7 net7 vssd1 vssd1 vccd1 vccd1 gpio_out[11] sky130_fd_sc_hd__buf_2
Xteam_06_154 vssd1 vssd1 vccd1 vccd1 team_06_154/HI gpio_oeb[0] sky130_fd_sc_hd__conb_1
Xoutput20 net20 vssd1 vssd1 vccd1 vccd1 gpio_out[24] sky130_fd_sc_hd__buf_2
XFILLER_31_64 vssd1 vssd1 vccd1 vccd1 sky130_fd_sc_hd__fill_4
Xteam_06_187 vssd1 vssd1 vccd1 vccd1 gpio_oeb[19] team_06_187/LO sky130_fd_sc_hd__conb_1
Xteam_06_176 vssd1 vssd1 vccd1 vccd1 gpio_oeb[8] team_06_176/LO sky130_fd_sc_hd__conb_1
XFILLER_0_274 vssd1 vssd1 vccd1 vccd1 sky130_fd_sc_hd__fill_4
X_2740_ clknet_leaf_27_clk _0278_ net133 vssd1 vssd1 vccd1 vccd1 CALC_INST.gencon_inst.mult_calc.countSave\[7\]
+ sky130_fd_sc_hd__dfrtp_1
XFILLER_8_396 vssd1 vssd1 vccd1 vccd1 sky130_fd_sc_hd__fill_1
X_2671_ clknet_leaf_31_clk _0209_ net119 vssd1 vssd1 vccd1 vccd1 CALC_INST.gencon_inst.mult_calc.compCount.in2\[2\]
+ sky130_fd_sc_hd__dfrtp_1
X_1622_ _0858_ _0859_ net82 vssd1 vssd1 vccd1 vccd1 _0861_ sky130_fd_sc_hd__a21oi_1
X_1553_ _0755_ _0804_ vssd1 vssd1 vccd1 vccd1 _0805_ sky130_fd_sc_hd__xnor2_1
X_1484_ CALC_INST.gencon_inst.add_calc.main.GENERATE_ADDER\[1\].thingy.in1 _0742_
+ vssd1 vssd1 vccd1 vccd1 _0743_ sky130_fd_sc_hd__nor2_1
XFILLER_39_223 vssd1 vssd1 vccd1 vccd1 sky130_fd_sc_hd__fill_1
XFILLER_54_259 vssd1 vssd1 vccd1 vccd1 sky130_fd_sc_hd__fill_1
X_2105_ CALC_INST.input_ctrl_inst.key_pressed net79 vssd1 vssd1 vccd1 vccd1 _1153_
+ sky130_fd_sc_hd__nand2_1
XTAP_TAPCELL_ROW_37_402 vssd1 vccd1 sky130_fd_sc_hd__tapvpwrvgnd_1
X_2036_ CALC_INST.gencon_inst.mult_calc.count.GENERATE_ADDER\[4\].thingy.in1 _1089_
+ vssd1 vssd1 vccd1 vccd1 _1090_ sky130_fd_sc_hd__nand2_1
XFILLER_62_281 vssd1 vssd1 vccd1 vccd1 sky130_fd_sc_hd__fill_2
XFILLER_10_307 vssd1 vssd1 vccd1 vccd1 sky130_fd_sc_hd__fill_1
XANTENNA__1914__B1 net77 vssd1 vssd1 vccd1 vccd1 sky130_fd_sc_hd__diode_2
X_2869_ clknet_leaf_31_clk _0364_ vssd1 vssd1 vccd1 vccd1 CALC_INST.input_ctrl_inst.scan_timer\[7\]
+ sky130_fd_sc_hd__dfxtp_1
XANTENNA_fanout68_A net71 vssd1 vssd1 vccd1 vccd1 sky130_fd_sc_hd__diode_2
XFILLER_60_218 vssd1 vssd1 vccd1 vccd1 sky130_fd_sc_hd__fill_2
XFILLER_45_259 vssd1 vssd1 vccd1 vccd1 sky130_fd_sc_hd__fill_2
XTAP_TAPCELL_ROW_43_438 vssd1 vccd1 sky130_fd_sc_hd__tapvpwrvgnd_1
XFILLER_26_75 vssd1 vssd1 vccd1 vccd1 sky130_fd_sc_hd__fill_2
XFILLER_26_42 vssd1 vssd1 vccd1 vccd1 sky130_fd_sc_hd__fill_2
XANTENNA_clkbuf_leaf_5_clk_A clknet_2_1__leaf_clk vssd1 vssd1 vccd1 vccd1 sky130_fd_sc_hd__diode_2