* NGSPICE file created from team_02.ext - technology: sky130A

* Black-box entry subcircuit for sky130_fd_sc_hd__or2_1 abstract view
.subckt sky130_fd_sc_hd__or2_1 A B VGND VNB VPB VPWR X
.ends

* Black-box entry subcircuit for sky130_fd_sc_hd__tapvpwrvgnd_1 abstract view
.subckt sky130_fd_sc_hd__tapvpwrvgnd_1 VGND VPWR
.ends

* Black-box entry subcircuit for sky130_fd_sc_hd__and3_1 abstract view
.subckt sky130_fd_sc_hd__and3_1 A B C VGND VNB VPB VPWR X
.ends

* Black-box entry subcircuit for sky130_fd_sc_hd__fill_1 abstract view
.subckt sky130_fd_sc_hd__fill_1 VGND VNB VPB VPWR
.ends

* Black-box entry subcircuit for sky130_fd_sc_hd__diode_2 abstract view
.subckt sky130_fd_sc_hd__diode_2 DIODE VGND VNB VPB VPWR
.ends

* Black-box entry subcircuit for sky130_fd_sc_hd__fill_2 abstract view
.subckt sky130_fd_sc_hd__fill_2 VGND VNB VPB VPWR
.ends

* Black-box entry subcircuit for sky130_ef_sc_hd__decap_40_12 abstract view
.subckt sky130_ef_sc_hd__decap_40_12 VPWR VGND VPB VNB
.ends

* Black-box entry subcircuit for sky130_fd_sc_hd__a311o_1 abstract view
.subckt sky130_fd_sc_hd__a311o_1 A1 A2 A3 B1 C1 VGND VNB VPB VPWR X
.ends

* Black-box entry subcircuit for sky130_fd_sc_hd__dfrtp_1 abstract view
.subckt sky130_fd_sc_hd__dfrtp_1 CLK D RESET_B VGND VNB VPB VPWR Q
.ends

* Black-box entry subcircuit for sky130_fd_sc_hd__fill_4 abstract view
.subckt sky130_fd_sc_hd__fill_4 VGND VNB VPB VPWR
.ends

* Black-box entry subcircuit for sky130_fd_sc_hd__nand2_1 abstract view
.subckt sky130_fd_sc_hd__nand2_1 A B VGND VNB VPB VPWR Y
.ends

* Black-box entry subcircuit for sky130_fd_sc_hd__nand3_1 abstract view
.subckt sky130_fd_sc_hd__nand3_1 A B C VGND VNB VPB VPWR Y
.ends

* Black-box entry subcircuit for sky130_fd_sc_hd__o21ba_1 abstract view
.subckt sky130_fd_sc_hd__o21ba_1 A1 A2 B1_N VGND VNB VPB VPWR X
.ends

* Black-box entry subcircuit for sky130_fd_sc_hd__conb_1 abstract view
.subckt sky130_fd_sc_hd__conb_1 VGND VNB VPB VPWR HI LO
.ends

* Black-box entry subcircuit for sky130_fd_sc_hd__dlygate4sd3_1 abstract view
.subckt sky130_fd_sc_hd__dlygate4sd3_1 A VGND VNB VPB VPWR X
.ends

* Black-box entry subcircuit for sky130_fd_sc_hd__fill_8 abstract view
.subckt sky130_fd_sc_hd__fill_8 VGND VNB VPB VPWR
.ends

* Black-box entry subcircuit for sky130_fd_sc_hd__nor2_1 abstract view
.subckt sky130_fd_sc_hd__nor2_1 A B VGND VNB VPB VPWR Y
.ends

* Black-box entry subcircuit for sky130_fd_sc_hd__mux2_1 abstract view
.subckt sky130_fd_sc_hd__mux2_1 A0 A1 S VGND VNB VPB VPWR X
.ends

* Black-box entry subcircuit for sky130_fd_sc_hd__dfrtp_4 abstract view
.subckt sky130_fd_sc_hd__dfrtp_4 CLK D RESET_B VGND VNB VPB VPWR Q
.ends

* Black-box entry subcircuit for sky130_fd_sc_hd__and3b_1 abstract view
.subckt sky130_fd_sc_hd__and3b_1 A_N B C VGND VNB VPB VPWR X
.ends

* Black-box entry subcircuit for sky130_fd_sc_hd__o21ai_1 abstract view
.subckt sky130_fd_sc_hd__o21ai_1 A1 A2 B1 VGND VNB VPB VPWR Y
.ends

* Black-box entry subcircuit for sky130_fd_sc_hd__inv_2 abstract view
.subckt sky130_fd_sc_hd__inv_2 A VGND VNB VPB VPWR Y
.ends

* Black-box entry subcircuit for sky130_fd_sc_hd__and2b_1 abstract view
.subckt sky130_fd_sc_hd__and2b_1 A_N B VGND VNB VPB VPWR X
.ends

* Black-box entry subcircuit for sky130_fd_sc_hd__and2_1 abstract view
.subckt sky130_fd_sc_hd__and2_1 A B VGND VNB VPB VPWR X
.ends

* Black-box entry subcircuit for sky130_fd_sc_hd__nor3_1 abstract view
.subckt sky130_fd_sc_hd__nor3_1 A B C VGND VNB VPB VPWR Y
.ends

* Black-box entry subcircuit for sky130_fd_sc_hd__a21o_1 abstract view
.subckt sky130_fd_sc_hd__a21o_1 A1 A2 B1 VGND VNB VPB VPWR X
.ends

* Black-box entry subcircuit for sky130_fd_sc_hd__or3_1 abstract view
.subckt sky130_fd_sc_hd__or3_1 A B C VGND VNB VPB VPWR X
.ends

* Black-box entry subcircuit for sky130_fd_sc_hd__o2111a_1 abstract view
.subckt sky130_fd_sc_hd__o2111a_1 A1 A2 B1 C1 D1 VGND VNB VPB VPWR X
.ends

* Black-box entry subcircuit for sky130_fd_sc_hd__xor2_1 abstract view
.subckt sky130_fd_sc_hd__xor2_1 A B VGND VNB VPB VPWR X
.ends

* Black-box entry subcircuit for sky130_fd_sc_hd__a21oi_1 abstract view
.subckt sky130_fd_sc_hd__a21oi_1 A1 A2 B1 VGND VNB VPB VPWR Y
.ends

* Black-box entry subcircuit for sky130_fd_sc_hd__buf_2 abstract view
.subckt sky130_fd_sc_hd__buf_2 A VGND VNB VPB VPWR X
.ends

* Black-box entry subcircuit for sky130_fd_sc_hd__a2111o_1 abstract view
.subckt sky130_fd_sc_hd__a2111o_1 A1 A2 B1 C1 D1 VGND VNB VPB VPWR X
.ends

* Black-box entry subcircuit for sky130_fd_sc_hd__a211oi_1 abstract view
.subckt sky130_fd_sc_hd__a211oi_1 A1 A2 B1 C1 VGND VNB VPB VPWR Y
.ends

* Black-box entry subcircuit for sky130_fd_sc_hd__xnor2_1 abstract view
.subckt sky130_fd_sc_hd__xnor2_1 A B VGND VNB VPB VPWR Y
.ends

* Black-box entry subcircuit for sky130_fd_sc_hd__o221a_1 abstract view
.subckt sky130_fd_sc_hd__o221a_1 A1 A2 B1 B2 C1 VGND VNB VPB VPWR X
.ends

* Black-box entry subcircuit for sky130_fd_sc_hd__dfxtp_1 abstract view
.subckt sky130_fd_sc_hd__dfxtp_1 CLK D VGND VNB VPB VPWR Q
.ends

* Black-box entry subcircuit for sky130_fd_sc_hd__o22ai_1 abstract view
.subckt sky130_fd_sc_hd__o22ai_1 A1 A2 B1 B2 VGND VNB VPB VPWR Y
.ends

* Black-box entry subcircuit for sky130_fd_sc_hd__or2_2 abstract view
.subckt sky130_fd_sc_hd__or2_2 A B VGND VNB VPB VPWR X
.ends

* Black-box entry subcircuit for sky130_fd_sc_hd__decap_3 abstract view
.subckt sky130_fd_sc_hd__decap_3 VGND VNB VPB VPWR
.ends

* Black-box entry subcircuit for sky130_fd_sc_hd__nand2_2 abstract view
.subckt sky130_fd_sc_hd__nand2_2 A B VGND VNB VPB VPWR Y
.ends

* Black-box entry subcircuit for sky130_fd_sc_hd__dfrtp_2 abstract view
.subckt sky130_fd_sc_hd__dfrtp_2 CLK D RESET_B VGND VNB VPB VPWR Q
.ends

* Black-box entry subcircuit for sky130_fd_sc_hd__a21bo_1 abstract view
.subckt sky130_fd_sc_hd__a21bo_1 A1 A2 B1_N VGND VNB VPB VPWR X
.ends

* Black-box entry subcircuit for sky130_fd_sc_hd__o21a_1 abstract view
.subckt sky130_fd_sc_hd__o21a_1 A1 A2 B1 VGND VNB VPB VPWR X
.ends

* Black-box entry subcircuit for sky130_fd_sc_hd__a31o_1 abstract view
.subckt sky130_fd_sc_hd__a31o_1 A1 A2 A3 B1 VGND VNB VPB VPWR X
.ends

* Black-box entry subcircuit for sky130_fd_sc_hd__o311a_1 abstract view
.subckt sky130_fd_sc_hd__o311a_1 A1 A2 A3 B1 C1 VGND VNB VPB VPWR X
.ends

* Black-box entry subcircuit for sky130_fd_sc_hd__nand2b_1 abstract view
.subckt sky130_fd_sc_hd__nand2b_1 A_N B VGND VNB VPB VPWR Y
.ends

* Black-box entry subcircuit for sky130_fd_sc_hd__a2bb2o_1 abstract view
.subckt sky130_fd_sc_hd__a2bb2o_1 A1_N A2_N B1 B2 VGND VNB VPB VPWR X
.ends

* Black-box entry subcircuit for sky130_fd_sc_hd__o2bb2a_1 abstract view
.subckt sky130_fd_sc_hd__o2bb2a_1 A1_N A2_N B1 B2 VGND VNB VPB VPWR X
.ends

* Black-box entry subcircuit for sky130_fd_sc_hd__a21boi_1 abstract view
.subckt sky130_fd_sc_hd__a21boi_1 A1 A2 B1_N VGND VNB VPB VPWR Y
.ends

* Black-box entry subcircuit for sky130_fd_sc_hd__or4_1 abstract view
.subckt sky130_fd_sc_hd__or4_1 A B C D VGND VNB VPB VPWR X
.ends

* Black-box entry subcircuit for sky130_fd_sc_hd__a211o_1 abstract view
.subckt sky130_fd_sc_hd__a211o_1 A1 A2 B1 C1 VGND VNB VPB VPWR X
.ends

* Black-box entry subcircuit for sky130_fd_sc_hd__a21o_2 abstract view
.subckt sky130_fd_sc_hd__a21o_2 A1 A2 B1 VGND VNB VPB VPWR X
.ends

* Black-box entry subcircuit for sky130_fd_sc_hd__o211a_1 abstract view
.subckt sky130_fd_sc_hd__o211a_1 A1 A2 B1 C1 VGND VNB VPB VPWR X
.ends

* Black-box entry subcircuit for sky130_fd_sc_hd__clkbuf_8 abstract view
.subckt sky130_fd_sc_hd__clkbuf_8 A VGND VNB VPB VPWR X
.ends

* Black-box entry subcircuit for sky130_fd_sc_hd__clkbuf_2 abstract view
.subckt sky130_fd_sc_hd__clkbuf_2 A VGND VNB VPB VPWR X
.ends

* Black-box entry subcircuit for sky130_fd_sc_hd__a221o_1 abstract view
.subckt sky130_fd_sc_hd__a221o_1 A1 A2 B1 B2 C1 VGND VNB VPB VPWR X
.ends

* Black-box entry subcircuit for sky130_fd_sc_hd__a22o_1 abstract view
.subckt sky130_fd_sc_hd__a22o_1 A1 A2 B1 B2 VGND VNB VPB VPWR X
.ends

* Black-box entry subcircuit for sky130_fd_sc_hd__a32o_1 abstract view
.subckt sky130_fd_sc_hd__a32o_1 A1 A2 A3 B1 B2 VGND VNB VPB VPWR X
.ends

* Black-box entry subcircuit for sky130_fd_sc_hd__o22a_1 abstract view
.subckt sky130_fd_sc_hd__o22a_1 A1 A2 B1 B2 VGND VNB VPB VPWR X
.ends

* Black-box entry subcircuit for sky130_fd_sc_hd__clkbuf_4 abstract view
.subckt sky130_fd_sc_hd__clkbuf_4 A VGND VNB VPB VPWR X
.ends

* Black-box entry subcircuit for sky130_fd_sc_hd__inv_6 abstract view
.subckt sky130_fd_sc_hd__inv_6 A VGND VNB VPB VPWR Y
.ends

* Black-box entry subcircuit for sky130_fd_sc_hd__or4b_1 abstract view
.subckt sky130_fd_sc_hd__or4b_1 A B C D_N VGND VNB VPB VPWR X
.ends

* Black-box entry subcircuit for sky130_fd_sc_hd__clkinvlp_4 abstract view
.subckt sky130_fd_sc_hd__clkinvlp_4 A VGND VNB VPB VPWR Y
.ends

* Black-box entry subcircuit for sky130_fd_sc_hd__a41o_2 abstract view
.subckt sky130_fd_sc_hd__a41o_2 A1 A2 A3 A4 B1 VGND VNB VPB VPWR X
.ends

* Black-box entry subcircuit for sky130_fd_sc_hd__or4bb_1 abstract view
.subckt sky130_fd_sc_hd__or4bb_1 A B C_N D_N VGND VNB VPB VPWR X
.ends

* Black-box entry subcircuit for sky130_fd_sc_hd__inv_8 abstract view
.subckt sky130_fd_sc_hd__inv_8 A VGND VNB VPB VPWR Y
.ends

* Black-box entry subcircuit for sky130_fd_sc_hd__clkinv_4 abstract view
.subckt sky130_fd_sc_hd__clkinv_4 A VGND VNB VPB VPWR Y
.ends

* Black-box entry subcircuit for sky130_fd_sc_hd__clkbuf_16 abstract view
.subckt sky130_fd_sc_hd__clkbuf_16 A VGND VNB VPB VPWR X
.ends

* Black-box entry subcircuit for sky130_fd_sc_hd__xnor2_2 abstract view
.subckt sky130_fd_sc_hd__xnor2_2 A B VGND VNB VPB VPWR Y
.ends

* Black-box entry subcircuit for sky130_fd_sc_hd__buf_1 abstract view
.subckt sky130_fd_sc_hd__buf_1 A VGND VNB VPB VPWR X
.ends

* Black-box entry subcircuit for sky130_fd_sc_hd__clkinv_2 abstract view
.subckt sky130_fd_sc_hd__clkinv_2 A VGND VNB VPB VPWR Y
.ends

* Black-box entry subcircuit for sky130_fd_sc_hd__and4_1 abstract view
.subckt sky130_fd_sc_hd__and4_1 A B C D VGND VNB VPB VPWR X
.ends

* Black-box entry subcircuit for sky130_fd_sc_hd__dfstp_1 abstract view
.subckt sky130_fd_sc_hd__dfstp_1 CLK D SET_B VGND VNB VPB VPWR Q
.ends

* Black-box entry subcircuit for sky130_fd_sc_hd__o32a_1 abstract view
.subckt sky130_fd_sc_hd__o32a_1 A1 A2 A3 B1 B2 VGND VNB VPB VPWR X
.ends

* Black-box entry subcircuit for sky130_fd_sc_hd__nor4_1 abstract view
.subckt sky130_fd_sc_hd__nor4_1 A B C D VGND VNB VPB VPWR Y
.ends

* Black-box entry subcircuit for sky130_fd_sc_hd__and3_2 abstract view
.subckt sky130_fd_sc_hd__and3_2 A B C VGND VNB VPB VPWR X
.ends

* Black-box entry subcircuit for sky130_fd_sc_hd__o21ai_4 abstract view
.subckt sky130_fd_sc_hd__o21ai_4 A1 A2 B1 VGND VNB VPB VPWR Y
.ends

* Black-box entry subcircuit for sky130_fd_sc_hd__and4b_1 abstract view
.subckt sky130_fd_sc_hd__and4b_1 A_N B C D VGND VNB VPB VPWR X
.ends

* Black-box entry subcircuit for sky130_fd_sc_hd__a21oi_2 abstract view
.subckt sky130_fd_sc_hd__a21oi_2 A1 A2 B1 VGND VNB VPB VPWR Y
.ends

* Black-box entry subcircuit for sky130_fd_sc_hd__dlymetal6s2s_1 abstract view
.subckt sky130_fd_sc_hd__dlymetal6s2s_1 A VGND VNB VPB VPWR X
.ends

* Black-box entry subcircuit for sky130_fd_sc_hd__and4bb_1 abstract view
.subckt sky130_fd_sc_hd__and4bb_1 A_N B_N C D VGND VNB VPB VPWR X
.ends

* Black-box entry subcircuit for sky130_fd_sc_hd__clkbuf_1 abstract view
.subckt sky130_fd_sc_hd__clkbuf_1 A VGND VNB VPB VPWR X
.ends

* Black-box entry subcircuit for sky130_fd_sc_hd__or3_2 abstract view
.subckt sky130_fd_sc_hd__or3_2 A B C VGND VNB VPB VPWR X
.ends

* Black-box entry subcircuit for sky130_fd_sc_hd__o31a_1 abstract view
.subckt sky130_fd_sc_hd__o31a_1 A1 A2 A3 B1 VGND VNB VPB VPWR X
.ends

* Black-box entry subcircuit for sky130_fd_sc_hd__nand3b_1 abstract view
.subckt sky130_fd_sc_hd__nand3b_1 A_N B C VGND VNB VPB VPWR Y
.ends

* Black-box entry subcircuit for sky130_fd_sc_hd__nor4_2 abstract view
.subckt sky130_fd_sc_hd__nor4_2 A B C D VGND VNB VPB VPWR Y
.ends

* Black-box entry subcircuit for sky130_fd_sc_hd__o21ai_2 abstract view
.subckt sky130_fd_sc_hd__o21ai_2 A1 A2 B1 VGND VNB VPB VPWR Y
.ends

* Black-box entry subcircuit for sky130_fd_sc_hd__o31ai_1 abstract view
.subckt sky130_fd_sc_hd__o31ai_1 A1 A2 A3 B1 VGND VNB VPB VPWR Y
.ends

* Black-box entry subcircuit for sky130_fd_sc_hd__or3b_1 abstract view
.subckt sky130_fd_sc_hd__or3b_1 A B C_N VGND VNB VPB VPWR X
.ends

* Black-box entry subcircuit for sky130_fd_sc_hd__nand4b_1 abstract view
.subckt sky130_fd_sc_hd__nand4b_1 A_N B C D VGND VNB VPB VPWR Y
.ends

* Black-box entry subcircuit for sky130_fd_sc_hd__o21bai_1 abstract view
.subckt sky130_fd_sc_hd__o21bai_1 A1 A2 B1_N VGND VNB VPB VPWR Y
.ends

* Black-box entry subcircuit for sky130_fd_sc_hd__a22o_2 abstract view
.subckt sky130_fd_sc_hd__a22o_2 A1 A2 B1 B2 VGND VNB VPB VPWR X
.ends

* Black-box entry subcircuit for sky130_fd_sc_hd__o211ai_4 abstract view
.subckt sky130_fd_sc_hd__o211ai_4 A1 A2 B1 C1 VGND VNB VPB VPWR Y
.ends

* Black-box entry subcircuit for sky130_fd_sc_hd__dfstp_2 abstract view
.subckt sky130_fd_sc_hd__dfstp_2 CLK D SET_B VGND VNB VPB VPWR Q
.ends

* Black-box entry subcircuit for sky130_fd_sc_hd__a31oi_1 abstract view
.subckt sky130_fd_sc_hd__a31oi_1 A1 A2 A3 B1 VGND VNB VPB VPWR Y
.ends

* Black-box entry subcircuit for sky130_fd_sc_hd__a21boi_4 abstract view
.subckt sky130_fd_sc_hd__a21boi_4 A1 A2 B1_N VGND VNB VPB VPWR Y
.ends

* Black-box entry subcircuit for sky130_fd_sc_hd__nor2_2 abstract view
.subckt sky130_fd_sc_hd__nor2_2 A B VGND VNB VPB VPWR Y
.ends

* Black-box entry subcircuit for sky130_fd_sc_hd__a2111oi_1 abstract view
.subckt sky130_fd_sc_hd__a2111oi_1 A1 A2 B1 C1 D1 VGND VNB VPB VPWR Y
.ends

* Black-box entry subcircuit for sky130_fd_sc_hd__a41o_1 abstract view
.subckt sky130_fd_sc_hd__a41o_1 A1 A2 A3 A4 B1 VGND VNB VPB VPWR X
.ends

* Black-box entry subcircuit for sky130_fd_sc_hd__a211oi_2 abstract view
.subckt sky130_fd_sc_hd__a211oi_2 A1 A2 B1 C1 VGND VNB VPB VPWR Y
.ends

.subckt team_02 clk en gpio_in[0] gpio_in[10] gpio_in[11] gpio_in[12] gpio_in[13]
+ gpio_in[14] gpio_in[15] gpio_in[16] gpio_in[17] gpio_in[18] gpio_in[19] gpio_in[1]
+ gpio_in[20] gpio_in[21] gpio_in[22] gpio_in[23] gpio_in[24] gpio_in[25] gpio_in[26]
+ gpio_in[27] gpio_in[28] gpio_in[29] gpio_in[2] gpio_in[30] gpio_in[31] gpio_in[32]
+ gpio_in[33] gpio_in[3] gpio_in[4] gpio_in[5] gpio_in[6] gpio_in[7] gpio_in[8] gpio_in[9]
+ gpio_oeb[0] gpio_oeb[10] gpio_oeb[11] gpio_oeb[12] gpio_oeb[13] gpio_oeb[14] gpio_oeb[15]
+ gpio_oeb[16] gpio_oeb[17] gpio_oeb[18] gpio_oeb[19] gpio_oeb[1] gpio_oeb[20] gpio_oeb[21]
+ gpio_oeb[22] gpio_oeb[23] gpio_oeb[24] gpio_oeb[25] gpio_oeb[26] gpio_oeb[27] gpio_oeb[28]
+ gpio_oeb[29] gpio_oeb[2] gpio_oeb[30] gpio_oeb[31] gpio_oeb[32] gpio_oeb[33] gpio_oeb[3]
+ gpio_oeb[4] gpio_oeb[5] gpio_oeb[6] gpio_oeb[7] gpio_oeb[8] gpio_oeb[9] gpio_out[0]
+ gpio_out[10] gpio_out[11] gpio_out[12] gpio_out[13] gpio_out[14] gpio_out[15] gpio_out[16]
+ gpio_out[17] gpio_out[18] gpio_out[19] gpio_out[1] gpio_out[20] gpio_out[21] gpio_out[22]
+ gpio_out[23] gpio_out[24] gpio_out[25] gpio_out[26] gpio_out[27] gpio_out[28] gpio_out[29]
+ gpio_out[2] gpio_out[30] gpio_out[31] gpio_out[32] gpio_out[33] gpio_out[3] gpio_out[4]
+ gpio_out[5] gpio_out[6] gpio_out[7] gpio_out[8] gpio_out[9] nrst vccd1 vssd1
X_2106_ dut.data_in\[3\] _0515_ vssd1 vssd1 vccd1 vccd1 _0523_ sky130_fd_sc_hd__or2_1
XTAP_TAPCELL_ROW_37_401 vssd1 vccd1 sky130_fd_sc_hd__tapvpwrvgnd_1
X_2037_ _0973_ _0474_ _0475_ vssd1 vssd1 vccd1 vccd1 _0012_ sky130_fd_sc_hd__and3_1
XFILLER_52_29 vssd1 vssd1 vccd1 vccd1 sky130_fd_sc_hd__fill_1
XANTENNA_fanout75_A net87 vssd1 vssd1 vccd1 vccd1 sky130_fd_sc_hd__diode_2
XFILLER_18_406 vssd1 vssd1 vccd1 vccd1 sky130_fd_sc_hd__fill_1
XFILLER_26_85 vssd1 vssd1 vccd1 vccd1 sky130_fd_sc_hd__fill_2
XFILLER_13_111 vssd1 vssd1 vccd1 vccd1 sky130_fd_sc_hd__fill_1
XFILLER_9_115 vccd1 vssd1 vccd1 vssd1 sky130_ef_sc_hd__decap_40_12
XFILLER_13_177 vssd1 vssd1 vccd1 vccd1 sky130_fd_sc_hd__fill_2
XFILLER_36_203 vssd1 vssd1 vccd1 vccd1 sky130_fd_sc_hd__fill_1
XFILLER_3_78 vssd1 vssd1 vccd1 vccd1 sky130_fd_sc_hd__fill_2
XFILLER_51_206 vssd1 vssd1 vccd1 vccd1 sky130_fd_sc_hd__fill_1
X_1606_ _0913_ _1187_ _1189_ _1191_ _1194_ vssd1 vssd1 vccd1 vccd1 _1195_ sky130_fd_sc_hd__a311o_1
X_2724_ clknet_leaf_4_clk _0094_ net67 vssd1 vssd1 vccd1 vccd1 dut.microstep_y.ctr\[7\]
+ sky130_fd_sc_hd__dfrtp_1
X_2655_ clknet_leaf_25_clk _0126_ net60 vssd1 vssd1 vccd1 vccd1 dut.ir_sensor_array.bit_count\[0\]
+ sky130_fd_sc_hd__dfrtp_1
XFILLER_8_192 vssd1 vssd1 vccd1 vccd1 sky130_fd_sc_hd__fill_4
X_1399_ dut.lcd1602.cnt_200ms\[5\] dut.lcd1602.cnt_200ms\[4\] _1002_ vssd1 vssd1 vccd1
+ vccd1 _1003_ sky130_fd_sc_hd__and3_1
X_1537_ _1119_ _1125_ vssd1 vssd1 vccd1 vccd1 _1126_ sky130_fd_sc_hd__nand2_1
X_1468_ dut.actual_duty_y\[3\] _1046_ _1056_ vssd1 vssd1 vccd1 vccd1 _1057_ sky130_fd_sc_hd__nand3_1
X_2586_ dut.ir_sensor_array.final_sensor_data\[30\] _0883_ dut.ir_sensor_array.final_sensor_data\[29\]
+ vssd1 vssd1 vccd1 vccd1 _0884_ sky130_fd_sc_hd__o21ba_1
XFILLER_27_236 vssd1 vssd1 vccd1 vccd1 sky130_fd_sc_hd__fill_4
XFILLER_27_225 vssd1 vssd1 vccd1 vccd1 sky130_fd_sc_hd__fill_2
Xteam_02_95 vssd1 vssd1 vccd1 vccd1 team_02_95/HI gpio_oeb[11] sky130_fd_sc_hd__conb_1
XFILLER_50_261 vssd1 vssd1 vccd1 vccd1 sky130_fd_sc_hd__fill_1
XTAP_TAPCELL_ROW_40_418 vssd1 vccd1 sky130_fd_sc_hd__tapvpwrvgnd_1
Xhold170 dut.lcd1602.cnt_200ms\[13\] vssd1 vssd1 vccd1 vccd1 net322 sky130_fd_sc_hd__dlygate4sd3_1
XFILLER_58_361 vssd1 vssd1 vccd1 vccd1 sky130_fd_sc_hd__fill_2
XTAP_TAPCELL_ROW_5_173 vssd1 vccd1 sky130_fd_sc_hd__tapvpwrvgnd_1
XFILLER_33_217 vssd1 vssd1 vccd1 vccd1 sky130_fd_sc_hd__fill_1
XFILLER_18_269 vssd1 vssd1 vccd1 vccd1 sky130_fd_sc_hd__fill_8
X_2440_ _0775_ _0785_ vssd1 vssd1 vccd1 vccd1 _0792_ sky130_fd_sc_hd__nand2_1
X_2371_ net300 _1003_ vssd1 vssd1 vccd1 vccd1 _0745_ sky130_fd_sc_hd__nor2_1
X_1322_ _0940_ net32 vssd1 vssd1 vccd1 vccd1 _0944_ sky130_fd_sc_hd__nand2_1
XFILLER_64_397 vssd1 vssd1 vccd1 vccd1 sky130_fd_sc_hd__fill_1
XFILLER_64_342 vssd1 vssd1 vccd1 vccd1 sky130_fd_sc_hd__fill_4
XFILLER_49_383 vssd1 vssd1 vccd1 vccd1 sky130_fd_sc_hd__fill_1
XTAP_TAPCELL_ROW_19_275 vssd1 vccd1 sky130_fd_sc_hd__tapvpwrvgnd_1
XTAP_TAPCELL_ROW_62_576 vssd1 vccd1 sky130_fd_sc_hd__tapvpwrvgnd_1
XFILLER_32_294 vssd1 vssd1 vccd1 vccd1 sky130_fd_sc_hd__fill_4
X_2638_ clknet_leaf_15_clk _0109_ net83 vssd1 vssd1 vccd1 vccd1 dut.sdo_lcd sky130_fd_sc_hd__dfrtp_1
X_2569_ net274 dut.ir_sensor_array.final_sensor_data\[34\] net34 vssd1 vssd1 vccd1
+ vccd1 _0217_ sky130_fd_sc_hd__mux2_1
X_2707_ clknet_2_2__leaf_clk dut.pwm_a_inst_x.count_d\[10\] net78 vssd1 vssd1 vccd1
+ vccd1 dut.pwm_a_inst_x.count_q\[10\] sky130_fd_sc_hd__dfrtp_4
XFILLER_55_342 vssd1 vssd1 vccd1 vccd1 sky130_fd_sc_hd__fill_2
XTAP_TAPCELL_ROW_2_154 vssd1 vccd1 sky130_fd_sc_hd__tapvpwrvgnd_1
XTAP_TAPCELL_ROW_53_510 vssd1 vccd1 sky130_fd_sc_hd__tapvpwrvgnd_1
XFILLER_23_31 vssd1 vssd1 vccd1 vccd1 sky130_fd_sc_hd__fill_8
XFILLER_7_405 vssd1 vssd1 vccd1 vccd1 sky130_fd_sc_hd__fill_2
XFILLER_2_165 vccd1 vssd1 vccd1 vssd1 sky130_ef_sc_hd__decap_40_12
XFILLER_61_301 vssd1 vssd1 vccd1 vccd1 sky130_fd_sc_hd__fill_8
XFILLER_46_342 vssd1 vssd1 vccd1 vccd1 sky130_fd_sc_hd__fill_2
XFILLER_0_57 vssd1 vssd1 vccd1 vccd1 sky130_fd_sc_hd__fill_4
XFILLER_61_389 vssd1 vssd1 vccd1 vccd1 sky130_fd_sc_hd__fill_2
X_1940_ net280 _0417_ vssd1 vssd1 vccd1 vccd1 _0418_ sky130_fd_sc_hd__nor2_1
XFILLER_9_44 vccd1 vssd1 vccd1 vssd1 sky130_ef_sc_hd__decap_40_12
XFILLER_14_294 vssd1 vssd1 vccd1 vccd1 sky130_fd_sc_hd__fill_1
X_1871_ _0376_ net26 _0375_ vssd1 vssd1 vccd1 vccd1 dut.pwm_a_inst_x.count_d\[11\]
+ sky130_fd_sc_hd__and3b_1
X_2423_ _0766_ _0772_ vssd1 vssd1 vccd1 vccd1 _0775_ sky130_fd_sc_hd__or2_1
XFILLER_56_139 vssd1 vssd1 vccd1 vccd1 sky130_fd_sc_hd__fill_1
X_2354_ _0705_ _0720_ dut.microstep_x.clk_en vssd1 vssd1 vccd1 vccd1 _0737_ sky130_fd_sc_hd__o21ai_1
X_1305_ net2 vssd1 vssd1 vccd1 vccd1 _0929_ sky130_fd_sc_hd__inv_2
X_2285_ _0666_ _0512_ vssd1 vssd1 vccd1 vccd1 _0673_ sky130_fd_sc_hd__and2b_1
XFILLER_52_334 vssd1 vssd1 vccd1 vccd1 sky130_fd_sc_hd__fill_2
XFILLER_37_375 vssd1 vssd1 vccd1 vccd1 sky130_fd_sc_hd__fill_4
XFILLER_12_209 vccd1 vssd1 vccd1 vssd1 sky130_ef_sc_hd__decap_40_12
XFILLER_60_29 vssd1 vssd1 vccd1 vccd1 sky130_fd_sc_hd__fill_2
XFILLER_60_18 vssd1 vssd1 vccd1 vccd1 sky130_fd_sc_hd__fill_1
XFILLER_20_275 vssd1 vssd1 vccd1 vccd1 sky130_fd_sc_hd__fill_1
XFILLER_20_286 vssd1 vssd1 vccd1 vccd1 sky130_fd_sc_hd__fill_1
XFILLER_47_117 vssd1 vssd1 vccd1 vccd1 sky130_fd_sc_hd__fill_2
XFILLER_43_356 vssd1 vssd1 vccd1 vccd1 sky130_fd_sc_hd__fill_2
XFILLER_34_85 vccd1 vssd1 vccd1 vssd1 sky130_ef_sc_hd__decap_40_12
X_2070_ _0976_ _0494_ vssd1 vssd1 vccd1 vccd1 dut.cs_n_lcd sky130_fd_sc_hd__nor2_1
XFILLER_38_117 vssd1 vssd1 vccd1 vccd1 sky130_fd_sc_hd__fill_1
XFILLER_22_7 vssd1 vssd1 vccd1 vccd1 sky130_fd_sc_hd__fill_1
XFILLER_46_183 vssd1 vssd1 vccd1 vccd1 sky130_fd_sc_hd__fill_1
XFILLER_46_150 vssd1 vssd1 vccd1 vccd1 sky130_fd_sc_hd__fill_1
XFILLER_34_389 vssd1 vssd1 vccd1 vccd1 sky130_fd_sc_hd__fill_4
XFILLER_19_397 vssd1 vssd1 vccd1 vccd1 sky130_fd_sc_hd__fill_8
XFILLER_61_197 vssd1 vssd1 vccd1 vccd1 sky130_fd_sc_hd__fill_2
X_1923_ net17 _0407_ vssd1 vssd1 vccd1 vccd1 _0408_ sky130_fd_sc_hd__nor2_1
X_1854_ _0327_ _0361_ vssd1 vssd1 vccd1 vccd1 _0366_ sky130_fd_sc_hd__and2_1
X_1785_ _1257_ _0287_ _0289_ vssd1 vssd1 vccd1 vccd1 _0303_ sky130_fd_sc_hd__nor3_1
X_2406_ _0764_ net214 vssd1 vssd1 vccd1 vccd1 _0160_ sky130_fd_sc_hd__nor2_1
X_2199_ _0581_ _0600_ vssd1 vssd1 vccd1 vccd1 _0602_ sky130_fd_sc_hd__nand2_1
XFILLER_29_106 vssd1 vssd1 vccd1 vccd1 sky130_fd_sc_hd__fill_4
XTAP_TAPCELL_ROW_27_329 vssd1 vccd1 sky130_fd_sc_hd__tapvpwrvgnd_1
XFILLER_25_301 vssd1 vssd1 vccd1 vccd1 sky130_fd_sc_hd__fill_2
X_2268_ _0939_ _0653_ dut.ir_sensor_array.bit_count\[3\] vssd1 vssd1 vccd1 vccd1 _0659_
+ sky130_fd_sc_hd__a21o_1
X_2337_ dut.actual_duty_x\[0\] _0724_ dut.microstep_x.clk_en vssd1 vssd1 vccd1 vccd1
+ _0132_ sky130_fd_sc_hd__mux2_1
XFILLER_52_197 vccd1 vssd1 vccd1 vssd1 sky130_ef_sc_hd__decap_40_12
XTAP_TAPCELL_ROW_35_384 vssd1 vccd1 sky130_fd_sc_hd__tapvpwrvgnd_1
XTAP_TAPCELL_ROW_10_207 vssd1 vccd1 sky130_fd_sc_hd__tapvpwrvgnd_1
XFILLER_20_65 vssd1 vssd1 vccd1 vccd1 sky130_fd_sc_hd__fill_1
Xhold52 dut.lcd1602.cnt_200ms\[14\] vssd1 vssd1 vccd1 vccd1 net204 sky130_fd_sc_hd__dlygate4sd3_1
Xhold74 dut.lcd1602.cnt_200ms\[7\] vssd1 vssd1 vccd1 vccd1 net226 sky130_fd_sc_hd__dlygate4sd3_1
Xhold41 dut.ir_sensor_array.bit_count\[5\] vssd1 vssd1 vccd1 vccd1 net193 sky130_fd_sc_hd__dlygate4sd3_1
Xhold63 dut.microstep_x.ctr\[26\] vssd1 vssd1 vccd1 vccd1 net215 sky130_fd_sc_hd__dlygate4sd3_1
Xhold30 dut.clkdiv_inst.counter\[1\] vssd1 vssd1 vccd1 vccd1 net182 sky130_fd_sc_hd__dlygate4sd3_1
XFILLER_20_87 vssd1 vssd1 vccd1 vccd1 sky130_fd_sc_hd__fill_1
Xhold85 dut.pwm_a_inst_y.count_q\[7\] vssd1 vssd1 vccd1 vccd1 net237 sky130_fd_sc_hd__dlygate4sd3_1
Xhold96 dut.ir_sensor_array.final_sensor_data\[33\] vssd1 vssd1 vccd1 vccd1 net248
+ sky130_fd_sc_hd__dlygate4sd3_1
XFILLER_28_194 vssd1 vssd1 vccd1 vccd1 sky130_fd_sc_hd__fill_2
XFILLER_28_161 vssd1 vssd1 vccd1 vccd1 sky130_fd_sc_hd__fill_8
XFILLER_16_301 vssd1 vssd1 vccd1 vccd1 sky130_fd_sc_hd__fill_2
X_1570_ _1073_ _1087_ _1140_ vssd1 vssd1 vccd1 vccd1 _1159_ sky130_fd_sc_hd__or3_1
XFILLER_6_45 vssd1 vssd1 vccd1 vccd1 sky130_fd_sc_hd__fill_4
X_2122_ dut.lcd1602.out_valid _0514_ _0529_ _0531_ _0984_ vssd1 vssd1 vccd1 vccd1
+ _0532_ sky130_fd_sc_hd__o2111a_1
X_2053_ net276 _0484_ vssd1 vssd1 vccd1 vccd1 _0003_ sky130_fd_sc_hd__xor2_1
XFILLER_13_3 vccd1 vssd1 vccd1 vssd1 sky130_ef_sc_hd__decap_40_12
XTAP_TAPCELL_ROW_32_365 vssd1 vccd1 sky130_fd_sc_hd__tapvpwrvgnd_1
X_1906_ _0910_ _0389_ _0397_ vssd1 vssd1 vccd1 vccd1 _0095_ sky130_fd_sc_hd__a21oi_1
X_2886_ clknet_leaf_5_clk _0007_ net62 vssd1 vssd1 vccd1 vccd1 dut.clkdiv_inst.counter\[14\]
+ sky130_fd_sc_hd__dfrtp_1
XFILLER_30_370 vssd1 vssd1 vccd1 vccd1 sky130_fd_sc_hd__fill_8
X_1837_ dut.pwm_a_inst_x.count_q\[18\] dut.pwm_a_inst_x.count_q\[19\] _0354_ vssd1
+ vssd1 vccd1 vccd1 _0355_ sky130_fd_sc_hd__nor3_1
X_1768_ _0235_ _0285_ _1273_ vssd1 vssd1 vccd1 vccd1 _0286_ sky130_fd_sc_hd__a21o_1
X_1699_ _1243_ _1244_ _1252_ vssd1 vssd1 vccd1 vccd1 _1269_ sky130_fd_sc_hd__o21ai_1
XFILLER_57_278 vssd1 vssd1 vccd1 vccd1 sky130_fd_sc_hd__fill_2
XFILLER_57_256 vssd1 vssd1 vccd1 vccd1 sky130_fd_sc_hd__fill_2
XFILLER_25_153 vssd1 vssd1 vccd1 vccd1 sky130_fd_sc_hd__fill_1
XFILLER_13_304 vssd1 vssd1 vccd1 vccd1 sky130_fd_sc_hd__fill_2
XFILLER_40_123 vssd1 vssd1 vccd1 vccd1 sky130_fd_sc_hd__fill_2
XFILLER_31_31 vssd1 vssd1 vccd1 vccd1 sky130_fd_sc_hd__fill_1
Xoutput7 net7 vssd1 vssd1 vccd1 vccd1 gpio_out[13] sky130_fd_sc_hd__buf_2
XFILLER_48_223 vssd1 vssd1 vccd1 vccd1 sky130_fd_sc_hd__fill_1
XFILLER_16_131 vssd1 vssd1 vccd1 vccd1 sky130_fd_sc_hd__fill_8
XFILLER_16_197 vccd1 vssd1 vccd1 vssd1 sky130_ef_sc_hd__decap_40_12
X_2671_ clknet_leaf_9_clk _0034_ net70 vssd1 vssd1 vccd1 vccd1 dut.lcd1602.cnt_500hz\[9\]
+ sky130_fd_sc_hd__dfrtp_1
X_1622_ dut.pwm_a_inst_y.count_q\[14\] _1209_ _1210_ dut.pwm_a_inst_y.count_q\[19\]
+ dut.pwm_a_inst_y.count_q\[18\] vssd1 vssd1 vccd1 vccd1 _1211_ sky130_fd_sc_hd__a2111o_1
X_2740_ clknet_leaf_6_clk _0082_ net62 vssd1 vssd1 vccd1 vccd1 dut.microstep_y.ctr\[23\]
+ sky130_fd_sc_hd__dfrtp_1
XFILLER_8_363 vssd1 vssd1 vccd1 vccd1 sky130_fd_sc_hd__fill_1
XANTENNA__2812__RESET_B net71 vssd1 vssd1 vccd1 vccd1 sky130_fd_sc_hd__diode_2
X_1553_ _1050_ _1052_ _1053_ _1058_ vssd1 vssd1 vccd1 vccd1 _1142_ sky130_fd_sc_hd__a211oi_1
X_1484_ _1062_ _1071_ vssd1 vssd1 vccd1 vccd1 _1073_ sky130_fd_sc_hd__xnor2_1
XFILLER_39_223 vssd1 vssd1 vccd1 vccd1 sky130_fd_sc_hd__fill_1
XFILLER_39_212 vssd1 vssd1 vccd1 vccd1 sky130_fd_sc_hd__fill_4
X_2105_ dut.spi.shift_reg_q\[1\] net20 _0520_ net246 _0522_ vssd1 vssd1 vccd1 vccd1
+ _0102_ sky130_fd_sc_hd__o221a_1
XFILLER_39_267 vssd1 vssd1 vccd1 vccd1 sky130_fd_sc_hd__fill_4
XTAP_TAPCELL_ROW_37_402 vssd1 vccd1 sky130_fd_sc_hd__tapvpwrvgnd_1
X_2036_ dut.clkdiv_inst.counter\[3\] _0969_ vssd1 vssd1 vccd1 vccd1 _0475_ sky130_fd_sc_hd__or2_1
XFILLER_22_156 vssd1 vssd1 vccd1 vccd1 sky130_fd_sc_hd__fill_8
XFILLER_10_307 vssd1 vssd1 vccd1 vccd1 sky130_fd_sc_hd__fill_1
X_2869_ clknet_leaf_12_clk _0222_ net79 vssd1 vssd1 vccd1 vccd1 dut.ball_pos_x\[0\]
+ sky130_fd_sc_hd__dfrtp_1
XANTENNA_fanout68_A net71 vssd1 vssd1 vccd1 vccd1 sky130_fd_sc_hd__diode_2
XFILLER_53_281 vssd1 vssd1 vccd1 vccd1 sky130_fd_sc_hd__fill_4
XTAP_TAPCELL_ROW_43_438 vssd1 vccd1 sky130_fd_sc_hd__tapvpwrvgnd_1
XFILLER_26_31 vssd1 vssd1 vccd1 vccd1 sky130_fd_sc_hd__fill_1
XFILLER_13_167 vssd1 vssd1 vccd1 vccd1 sky130_fd_sc_hd__fill_1
XFILLER_42_85 vssd1 vssd1 vccd1 vccd1 sky130_fd_sc_hd__fill_8
XANTENNA_clkbuf_leaf_5_clk_A clknet_2_1__leaf_clk vssd1 vssd1 vccd1 vccd1 sky130_fd_sc_hd__diode_2
XFILLER_5_344 vssd1 vssd1 vccd1 vccd1 sky130_fd_sc_hd__fill_4
XFILLER_9_127 vccd1 vssd1 vccd1 vssd1 sky130_ef_sc_hd__decap_40_12
XTAP_TAPCELL_ROW_8_193 vssd1 vccd1 sky130_fd_sc_hd__tapvpwrvgnd_1
XFILLER_51_218 vssd1 vssd1 vccd1 vccd1 sky130_fd_sc_hd__fill_1
XFILLER_36_226 vssd1 vssd1 vccd1 vccd1 sky130_fd_sc_hd__fill_4
X_2723_ clknet_leaf_4_clk _0093_ net67 vssd1 vssd1 vccd1 vccd1 dut.microstep_y.ctr\[6\]
+ sky130_fd_sc_hd__dfrtp_1
X_2654_ clknet_leaf_14_clk _0125_ vssd1 vssd1 vccd1 vccd1 dut.data_in\[9\] sky130_fd_sc_hd__dfxtp_1
X_1536_ _1120_ _1124_ vssd1 vssd1 vccd1 vccd1 _1125_ sky130_fd_sc_hd__and2_1
X_1605_ dut.pwm_a_inst_y.count_q\[2\] _1185_ _1193_ dut.pwm_a_inst_y.count_q\[3\]
+ vssd1 vssd1 vccd1 vccd1 _1194_ sky130_fd_sc_hd__o22ai_1
X_2585_ dut.ir_sensor_array.final_sensor_data\[16\] _0882_ dut.ir_sensor_array.final_sensor_data\[31\]
+ vssd1 vssd1 vccd1 vccd1 _0883_ sky130_fd_sc_hd__o21ba_1
XFILLER_59_307 vssd1 vssd1 vccd1 vccd1 sky130_fd_sc_hd__fill_1
X_1398_ dut.lcd1602.cnt_200ms\[3\] _1001_ vssd1 vssd1 vccd1 vccd1 _1002_ sky130_fd_sc_hd__and2_1
X_1467_ net36 net37 vssd1 vssd1 vccd1 vccd1 _1056_ sky130_fd_sc_hd__or2_2
Xteam_02_96 vssd1 vssd1 vccd1 vccd1 team_02_96/HI gpio_oeb[12] sky130_fd_sc_hd__conb_1
XFILLER_50_251 vssd1 vssd1 vccd1 vccd1 sky130_fd_sc_hd__fill_1
XFILLER_50_240 vssd1 vssd1 vccd1 vccd1 sky130_fd_sc_hd__fill_1
X_2019_ _0464_ _0465_ vssd1 vssd1 vccd1 vccd1 _0052_ sky130_fd_sc_hd__nor2_1
XPHY_EDGE_ROW_19_Left_84 vssd1 vssd1 vccd1 vccd1 sky130_fd_sc_hd__decap_3
XFILLER_50_295 vssd1 vssd1 vccd1 vccd1 sky130_fd_sc_hd__fill_2
XTAP_TAPCELL_ROW_40_419 vssd1 vccd1 sky130_fd_sc_hd__tapvpwrvgnd_1
Xhold160 dut.lcd1602.cnt_500hz\[11\] vssd1 vssd1 vccd1 vccd1 net312 sky130_fd_sc_hd__dlygate4sd3_1
Xhold171 dut.ir_sensor_array.final_sensor_data\[25\] vssd1 vssd1 vccd1 vccd1 net323
+ sky130_fd_sc_hd__dlygate4sd3_1
XTAP_TAPCELL_ROW_56_530 vssd1 vccd1 sky130_fd_sc_hd__tapvpwrvgnd_1
XTAP_TAPCELL_ROW_5_174 vssd1 vccd1 sky130_fd_sc_hd__tapvpwrvgnd_1
XFILLER_26_270 vssd1 vssd1 vccd1 vccd1 sky130_fd_sc_hd__fill_1
X_2370_ _1003_ _0744_ net13 vssd1 vssd1 vccd1 vccd1 _0145_ sky130_fd_sc_hd__o21ai_1
X_1321_ net35 dut.ir_sensor_array.state\[1\] vssd1 vssd1 vccd1 vccd1 _0943_ sky130_fd_sc_hd__nand2_2
XFILLER_1_391 vssd1 vssd1 vccd1 vccd1 sky130_fd_sc_hd__fill_1
XFILLER_64_365 vssd1 vssd1 vccd1 vccd1 sky130_fd_sc_hd__fill_2
XFILLER_64_321 vssd1 vssd1 vccd1 vccd1 sky130_fd_sc_hd__fill_4
XTAP_TAPCELL_ROW_19_276 vssd1 vccd1 sky130_fd_sc_hd__tapvpwrvgnd_1
XTAP_TAPCELL_ROW_62_577 vssd1 vccd1 sky130_fd_sc_hd__tapvpwrvgnd_1
XFILLER_32_251 vssd1 vssd1 vccd1 vccd1 sky130_fd_sc_hd__fill_1
X_2706_ clknet_leaf_21_clk dut.pwm_a_inst_x.count_d\[9\] net78 vssd1 vssd1 vccd1 vccd1
+ dut.pwm_a_inst_x.count_q\[9\] sky130_fd_sc_hd__dfrtp_2
XFILLER_58_29 vssd1 vssd1 vccd1 vccd1 sky130_fd_sc_hd__fill_2
X_2637_ clknet_leaf_13_clk net178 net82 vssd1 vssd1 vccd1 vccd1 dut.spi.shift_reg_q\[8\]
+ sky130_fd_sc_hd__dfrtp_1
X_1519_ dut.actual_duty_y\[3\] net41 vssd1 vssd1 vccd1 vccd1 _1108_ sky130_fd_sc_hd__and2_1