* NGSPICE file created from team_07.ext - technology: sky130A

* Black-box entry subcircuit for sky130_fd_sc_hd__fill_8 abstract view
.subckt sky130_fd_sc_hd__fill_8 VGND VNB VPB VPWR
.ends

* Black-box entry subcircuit for sky130_fd_sc_hd__tapvpwrvgnd_1 abstract view
.subckt sky130_fd_sc_hd__tapvpwrvgnd_1 VGND VPWR
.ends

* Black-box entry subcircuit for sky130_fd_sc_hd__fill_1 abstract view
.subckt sky130_fd_sc_hd__fill_1 VGND VNB VPB VPWR
.ends

* Black-box entry subcircuit for sky130_fd_sc_hd__fill_2 abstract view
.subckt sky130_fd_sc_hd__fill_2 VGND VNB VPB VPWR
.ends

* Black-box entry subcircuit for sky130_fd_sc_hd__dfstp_1 abstract view
.subckt sky130_fd_sc_hd__dfstp_1 CLK D SET_B VGND VNB VPB VPWR Q
.ends

* Black-box entry subcircuit for sky130_fd_sc_hd__and3b_1 abstract view
.subckt sky130_fd_sc_hd__and3b_1 A_N B C VGND VNB VPB VPWR X
.ends

* Black-box entry subcircuit for sky130_fd_sc_hd__o21ba_1 abstract view
.subckt sky130_fd_sc_hd__o21ba_1 A1 A2 B1_N VGND VNB VPB VPWR X
.ends

* Black-box entry subcircuit for sky130_fd_sc_hd__fill_4 abstract view
.subckt sky130_fd_sc_hd__fill_4 VGND VNB VPB VPWR
.ends

* Black-box entry subcircuit for sky130_fd_sc_hd__diode_2 abstract view
.subckt sky130_fd_sc_hd__diode_2 DIODE VGND VNB VPB VPWR
.ends

* Black-box entry subcircuit for sky130_ef_sc_hd__decap_40_12 abstract view
.subckt sky130_ef_sc_hd__decap_40_12 VPWR VGND VPB VNB
.ends

* Black-box entry subcircuit for sky130_fd_sc_hd__nand2_1 abstract view
.subckt sky130_fd_sc_hd__nand2_1 A B VGND VNB VPB VPWR Y
.ends

* Black-box entry subcircuit for sky130_fd_sc_hd__nor3_1 abstract view
.subckt sky130_fd_sc_hd__nor3_1 A B C VGND VNB VPB VPWR Y
.ends

* Black-box entry subcircuit for sky130_fd_sc_hd__decap_3 abstract view
.subckt sky130_fd_sc_hd__decap_3 VGND VNB VPB VPWR
.ends

* Black-box entry subcircuit for sky130_fd_sc_hd__dfrtp_1 abstract view
.subckt sky130_fd_sc_hd__dfrtp_1 CLK D RESET_B VGND VNB VPB VPWR Q
.ends

* Black-box entry subcircuit for sky130_fd_sc_hd__nor2_1 abstract view
.subckt sky130_fd_sc_hd__nor2_1 A B VGND VNB VPB VPWR Y
.ends

* Black-box entry subcircuit for sky130_fd_sc_hd__o221a_1 abstract view
.subckt sky130_fd_sc_hd__o221a_1 A1 A2 B1 B2 C1 VGND VNB VPB VPWR X
.ends

* Black-box entry subcircuit for sky130_fd_sc_hd__inv_2 abstract view
.subckt sky130_fd_sc_hd__inv_2 A VGND VNB VPB VPWR Y
.ends

* Black-box entry subcircuit for sky130_fd_sc_hd__and4_1 abstract view
.subckt sky130_fd_sc_hd__and4_1 A B C D VGND VNB VPB VPWR X
.ends

* Black-box entry subcircuit for sky130_fd_sc_hd__and2b_1 abstract view
.subckt sky130_fd_sc_hd__and2b_1 A_N B VGND VNB VPB VPWR X
.ends

* Black-box entry subcircuit for sky130_fd_sc_hd__clkbuf_16 abstract view
.subckt sky130_fd_sc_hd__clkbuf_16 A VGND VNB VPB VPWR X
.ends

* Black-box entry subcircuit for sky130_fd_sc_hd__mux2_1 abstract view
.subckt sky130_fd_sc_hd__mux2_1 A0 A1 S VGND VNB VPB VPWR X
.ends

* Black-box entry subcircuit for sky130_fd_sc_hd__a21o_1 abstract view
.subckt sky130_fd_sc_hd__a21o_1 A1 A2 B1 VGND VNB VPB VPWR X
.ends

* Black-box entry subcircuit for sky130_fd_sc_hd__or2_1 abstract view
.subckt sky130_fd_sc_hd__or2_1 A B VGND VNB VPB VPWR X
.ends

* Black-box entry subcircuit for sky130_fd_sc_hd__xnor2_1 abstract view
.subckt sky130_fd_sc_hd__xnor2_1 A B VGND VNB VPB VPWR Y
.ends

* Black-box entry subcircuit for sky130_fd_sc_hd__o2111a_1 abstract view
.subckt sky130_fd_sc_hd__o2111a_1 A1 A2 B1 C1 D1 VGND VNB VPB VPWR X
.ends

* Black-box entry subcircuit for sky130_fd_sc_hd__a211o_1 abstract view
.subckt sky130_fd_sc_hd__a211o_1 A1 A2 B1 C1 VGND VNB VPB VPWR X
.ends

* Black-box entry subcircuit for sky130_fd_sc_hd__a221oi_1 abstract view
.subckt sky130_fd_sc_hd__a221oi_1 A1 A2 B1 B2 C1 VGND VNB VPB VPWR Y
.ends

* Black-box entry subcircuit for sky130_fd_sc_hd__dfrtp_2 abstract view
.subckt sky130_fd_sc_hd__dfrtp_2 CLK D RESET_B VGND VNB VPB VPWR Q
.ends

* Black-box entry subcircuit for sky130_fd_sc_hd__and4bb_1 abstract view
.subckt sky130_fd_sc_hd__and4bb_1 A_N B_N C D VGND VNB VPB VPWR X
.ends

* Black-box entry subcircuit for sky130_fd_sc_hd__a22o_1 abstract view
.subckt sky130_fd_sc_hd__a22o_1 A1 A2 B1 B2 VGND VNB VPB VPWR X
.ends

* Black-box entry subcircuit for sky130_fd_sc_hd__a221o_1 abstract view
.subckt sky130_fd_sc_hd__a221o_1 A1 A2 B1 B2 C1 VGND VNB VPB VPWR X
.ends

* Black-box entry subcircuit for sky130_fd_sc_hd__dlygate4sd3_1 abstract view
.subckt sky130_fd_sc_hd__dlygate4sd3_1 A VGND VNB VPB VPWR X
.ends

* Black-box entry subcircuit for sky130_fd_sc_hd__or3b_1 abstract view
.subckt sky130_fd_sc_hd__or3b_1 A B C_N VGND VNB VPB VPWR X
.ends

* Black-box entry subcircuit for sky130_fd_sc_hd__and4b_1 abstract view
.subckt sky130_fd_sc_hd__and4b_1 A_N B C D VGND VNB VPB VPWR X
.ends

* Black-box entry subcircuit for sky130_fd_sc_hd__or4_1 abstract view
.subckt sky130_fd_sc_hd__or4_1 A B C D VGND VNB VPB VPWR X
.ends

* Black-box entry subcircuit for sky130_fd_sc_hd__and3_1 abstract view
.subckt sky130_fd_sc_hd__and3_1 A B C VGND VNB VPB VPWR X
.ends

* Black-box entry subcircuit for sky130_fd_sc_hd__o21ai_1 abstract view
.subckt sky130_fd_sc_hd__o21ai_1 A1 A2 B1 VGND VNB VPB VPWR Y
.ends

* Black-box entry subcircuit for sky130_fd_sc_hd__o2bb2a_1 abstract view
.subckt sky130_fd_sc_hd__o2bb2a_1 A1_N A2_N B1 B2 VGND VNB VPB VPWR X
.ends

* Black-box entry subcircuit for sky130_fd_sc_hd__or3_1 abstract view
.subckt sky130_fd_sc_hd__or3_1 A B C VGND VNB VPB VPWR X
.ends

* Black-box entry subcircuit for sky130_fd_sc_hd__xor2_1 abstract view
.subckt sky130_fd_sc_hd__xor2_1 A B VGND VNB VPB VPWR X
.ends

* Black-box entry subcircuit for sky130_fd_sc_hd__or3_2 abstract view
.subckt sky130_fd_sc_hd__or3_2 A B C VGND VNB VPB VPWR X
.ends

* Black-box entry subcircuit for sky130_fd_sc_hd__or4b_1 abstract view
.subckt sky130_fd_sc_hd__or4b_1 A B C D_N VGND VNB VPB VPWR X
.ends

* Black-box entry subcircuit for sky130_fd_sc_hd__clkbuf_4 abstract view
.subckt sky130_fd_sc_hd__clkbuf_4 A VGND VNB VPB VPWR X
.ends

* Black-box entry subcircuit for sky130_fd_sc_hd__o21a_1 abstract view
.subckt sky130_fd_sc_hd__o21a_1 A1 A2 B1 VGND VNB VPB VPWR X
.ends

* Black-box entry subcircuit for sky130_fd_sc_hd__o31a_1 abstract view
.subckt sky130_fd_sc_hd__o31a_1 A1 A2 A3 B1 VGND VNB VPB VPWR X
.ends

* Black-box entry subcircuit for sky130_fd_sc_hd__nand2b_1 abstract view
.subckt sky130_fd_sc_hd__nand2b_1 A_N B VGND VNB VPB VPWR Y
.ends

* Black-box entry subcircuit for sky130_fd_sc_hd__dfrtp_4 abstract view
.subckt sky130_fd_sc_hd__dfrtp_4 CLK D RESET_B VGND VNB VPB VPWR Q
.ends

* Black-box entry subcircuit for sky130_fd_sc_hd__clkinv_2 abstract view
.subckt sky130_fd_sc_hd__clkinv_2 A VGND VNB VPB VPWR Y
.ends

* Black-box entry subcircuit for sky130_fd_sc_hd__o21bai_1 abstract view
.subckt sky130_fd_sc_hd__o21bai_1 A1 A2 B1_N VGND VNB VPB VPWR Y
.ends

* Black-box entry subcircuit for sky130_fd_sc_hd__a21oi_1 abstract view
.subckt sky130_fd_sc_hd__a21oi_1 A1 A2 B1 VGND VNB VPB VPWR Y
.ends

* Black-box entry subcircuit for sky130_fd_sc_hd__clkinv_4 abstract view
.subckt sky130_fd_sc_hd__clkinv_4 A VGND VNB VPB VPWR Y
.ends

* Black-box entry subcircuit for sky130_fd_sc_hd__o211a_1 abstract view
.subckt sky130_fd_sc_hd__o211a_1 A1 A2 B1 C1 VGND VNB VPB VPWR X
.ends

* Black-box entry subcircuit for sky130_fd_sc_hd__and3_4 abstract view
.subckt sky130_fd_sc_hd__and3_4 A B C VGND VNB VPB VPWR X
.ends

* Black-box entry subcircuit for sky130_fd_sc_hd__and2_1 abstract view
.subckt sky130_fd_sc_hd__and2_1 A B VGND VNB VPB VPWR X
.ends

* Black-box entry subcircuit for sky130_fd_sc_hd__nor2_4 abstract view
.subckt sky130_fd_sc_hd__nor2_4 A B VGND VNB VPB VPWR Y
.ends

* Black-box entry subcircuit for sky130_fd_sc_hd__inv_6 abstract view
.subckt sky130_fd_sc_hd__inv_6 A VGND VNB VPB VPWR Y
.ends

* Black-box entry subcircuit for sky130_fd_sc_hd__a22oi_1 abstract view
.subckt sky130_fd_sc_hd__a22oi_1 A1 A2 B1 B2 VGND VNB VPB VPWR Y
.ends

* Black-box entry subcircuit for sky130_fd_sc_hd__nand3b_2 abstract view
.subckt sky130_fd_sc_hd__nand3b_2 A_N B C VGND VNB VPB VPWR Y
.ends

* Black-box entry subcircuit for sky130_fd_sc_hd__clkbuf_1 abstract view
.subckt sky130_fd_sc_hd__clkbuf_1 A VGND VNB VPB VPWR X
.ends

* Black-box entry subcircuit for sky130_fd_sc_hd__a2bb2o_1 abstract view
.subckt sky130_fd_sc_hd__a2bb2o_1 A1_N A2_N B1 B2 VGND VNB VPB VPWR X
.ends

* Black-box entry subcircuit for sky130_fd_sc_hd__a32o_1 abstract view
.subckt sky130_fd_sc_hd__a32o_1 A1 A2 A3 B1 B2 VGND VNB VPB VPWR X
.ends

* Black-box entry subcircuit for sky130_fd_sc_hd__a2111oi_1 abstract view
.subckt sky130_fd_sc_hd__a2111oi_1 A1 A2 B1 C1 D1 VGND VNB VPB VPWR Y
.ends

* Black-box entry subcircuit for sky130_fd_sc_hd__o22a_1 abstract view
.subckt sky130_fd_sc_hd__o22a_1 A1 A2 B1 B2 VGND VNB VPB VPWR X
.ends

* Black-box entry subcircuit for sky130_fd_sc_hd__a31o_1 abstract view
.subckt sky130_fd_sc_hd__a31o_1 A1 A2 A3 B1 VGND VNB VPB VPWR X
.ends

* Black-box entry subcircuit for sky130_fd_sc_hd__o31ai_1 abstract view
.subckt sky130_fd_sc_hd__o31ai_1 A1 A2 A3 B1 VGND VNB VPB VPWR Y
.ends

* Black-box entry subcircuit for sky130_fd_sc_hd__clkbuf_2 abstract view
.subckt sky130_fd_sc_hd__clkbuf_2 A VGND VNB VPB VPWR X
.ends

* Black-box entry subcircuit for sky130_fd_sc_hd__inv_8 abstract view
.subckt sky130_fd_sc_hd__inv_8 A VGND VNB VPB VPWR Y
.ends

* Black-box entry subcircuit for sky130_fd_sc_hd__or3b_2 abstract view
.subckt sky130_fd_sc_hd__or3b_2 A B C_N VGND VNB VPB VPWR X
.ends

* Black-box entry subcircuit for sky130_fd_sc_hd__buf_2 abstract view
.subckt sky130_fd_sc_hd__buf_2 A VGND VNB VPB VPWR X
.ends

* Black-box entry subcircuit for sky130_fd_sc_hd__nand2b_2 abstract view
.subckt sky130_fd_sc_hd__nand2b_2 A_N B VGND VNB VPB VPWR Y
.ends

* Black-box entry subcircuit for sky130_fd_sc_hd__nand4_1 abstract view
.subckt sky130_fd_sc_hd__nand4_1 A B C D VGND VNB VPB VPWR Y
.ends

* Black-box entry subcircuit for sky130_fd_sc_hd__o22ai_1 abstract view
.subckt sky130_fd_sc_hd__o22ai_1 A1 A2 B1 B2 VGND VNB VPB VPWR Y
.ends

* Black-box entry subcircuit for sky130_fd_sc_hd__a21bo_1 abstract view
.subckt sky130_fd_sc_hd__a21bo_1 A1 A2 B1_N VGND VNB VPB VPWR X
.ends

* Black-box entry subcircuit for sky130_fd_sc_hd__nor3b_2 abstract view
.subckt sky130_fd_sc_hd__nor3b_2 A B C_N VGND VNB VPB VPWR Y
.ends

* Black-box entry subcircuit for sky130_fd_sc_hd__o311a_1 abstract view
.subckt sky130_fd_sc_hd__o311a_1 A1 A2 A3 B1 C1 VGND VNB VPB VPWR X
.ends

* Black-box entry subcircuit for sky130_fd_sc_hd__nand3_1 abstract view
.subckt sky130_fd_sc_hd__nand3_1 A B C VGND VNB VPB VPWR Y
.ends

* Black-box entry subcircuit for sky130_fd_sc_hd__a311o_1 abstract view
.subckt sky130_fd_sc_hd__a311o_1 A1 A2 A3 B1 C1 VGND VNB VPB VPWR X
.ends

* Black-box entry subcircuit for sky130_fd_sc_hd__a221o_2 abstract view
.subckt sky130_fd_sc_hd__a221o_2 A1 A2 B1 B2 C1 VGND VNB VPB VPWR X
.ends

* Black-box entry subcircuit for sky130_fd_sc_hd__dfstp_2 abstract view
.subckt sky130_fd_sc_hd__dfstp_2 CLK D SET_B VGND VNB VPB VPWR Q
.ends

* Black-box entry subcircuit for sky130_fd_sc_hd__a211oi_1 abstract view
.subckt sky130_fd_sc_hd__a211oi_1 A1 A2 B1 C1 VGND VNB VPB VPWR Y
.ends

* Black-box entry subcircuit for sky130_fd_sc_hd__buf_1 abstract view
.subckt sky130_fd_sc_hd__buf_1 A VGND VNB VPB VPWR X
.ends

* Black-box entry subcircuit for sky130_fd_sc_hd__conb_1 abstract view
.subckt sky130_fd_sc_hd__conb_1 VGND VNB VPB VPWR HI LO
.ends

* Black-box entry subcircuit for sky130_fd_sc_hd__nand2_2 abstract view
.subckt sky130_fd_sc_hd__nand2_2 A B VGND VNB VPB VPWR Y
.ends

* Black-box entry subcircuit for sky130_fd_sc_hd__or2_2 abstract view
.subckt sky130_fd_sc_hd__or2_2 A B VGND VNB VPB VPWR X
.ends

* Black-box entry subcircuit for sky130_fd_sc_hd__dlymetal6s2s_1 abstract view
.subckt sky130_fd_sc_hd__dlymetal6s2s_1 A VGND VNB VPB VPWR X
.ends

* Black-box entry subcircuit for sky130_fd_sc_hd__or4bb_1 abstract view
.subckt sky130_fd_sc_hd__or4bb_1 A B C_N D_N VGND VNB VPB VPWR X
.ends

* Black-box entry subcircuit for sky130_fd_sc_hd__a21boi_1 abstract view
.subckt sky130_fd_sc_hd__a21boi_1 A1 A2 B1_N VGND VNB VPB VPWR Y
.ends

* Black-box entry subcircuit for sky130_fd_sc_hd__nor4_1 abstract view
.subckt sky130_fd_sc_hd__nor4_1 A B C D VGND VNB VPB VPWR Y
.ends

* Black-box entry subcircuit for sky130_fd_sc_hd__nor3b_1 abstract view
.subckt sky130_fd_sc_hd__nor3b_1 A B C_N VGND VNB VPB VPWR Y
.ends

* Black-box entry subcircuit for sky130_fd_sc_hd__a311oi_1 abstract view
.subckt sky130_fd_sc_hd__a311oi_1 A1 A2 A3 B1 C1 VGND VNB VPB VPWR Y
.ends

* Black-box entry subcircuit for sky130_fd_sc_hd__or4b_2 abstract view
.subckt sky130_fd_sc_hd__or4b_2 A B C D_N VGND VNB VPB VPWR X
.ends

.subckt team_07 clk en gpio_in[0] gpio_in[10] gpio_in[11] gpio_in[12] gpio_in[13]
+ gpio_in[14] gpio_in[15] gpio_in[16] gpio_in[17] gpio_in[18] gpio_in[19] gpio_in[1]
+ gpio_in[20] gpio_in[21] gpio_in[22] gpio_in[23] gpio_in[24] gpio_in[25] gpio_in[26]
+ gpio_in[27] gpio_in[28] gpio_in[29] gpio_in[2] gpio_in[30] gpio_in[31] gpio_in[32]
+ gpio_in[33] gpio_in[3] gpio_in[4] gpio_in[5] gpio_in[6] gpio_in[7] gpio_in[8] gpio_in[9]
+ gpio_oeb[0] gpio_oeb[10] gpio_oeb[11] gpio_oeb[12] gpio_oeb[13] gpio_oeb[14] gpio_oeb[15]
+ gpio_oeb[16] gpio_oeb[17] gpio_oeb[18] gpio_oeb[19] gpio_oeb[1] gpio_oeb[20] gpio_oeb[21]
+ gpio_oeb[22] gpio_oeb[23] gpio_oeb[24] gpio_oeb[25] gpio_oeb[26] gpio_oeb[27] gpio_oeb[28]
+ gpio_oeb[29] gpio_oeb[2] gpio_oeb[30] gpio_oeb[31] gpio_oeb[32] gpio_oeb[33] gpio_oeb[3]
+ gpio_oeb[4] gpio_oeb[5] gpio_oeb[6] gpio_oeb[7] gpio_oeb[8] gpio_oeb[9] gpio_out[0]
+ gpio_out[10] gpio_out[11] gpio_out[12] gpio_out[13] gpio_out[14] gpio_out[15] gpio_out[16]
+ gpio_out[17] gpio_out[18] gpio_out[19] gpio_out[1] gpio_out[20] gpio_out[21] gpio_out[22]
+ gpio_out[23] gpio_out[24] gpio_out[25] gpio_out[26] gpio_out[27] gpio_out[28] gpio_out[29]
+ gpio_out[2] gpio_out[30] gpio_out[31] gpio_out[32] gpio_out[33] gpio_out[3] gpio_out[4]
+ gpio_out[5] gpio_out[6] gpio_out[7] gpio_out[8] gpio_out[9] nrst vccd1 vssd1
XFILLER_22_188 vssd1 vssd1 vccd1 vccd1 sky130_fd_sc_hd__fill_8
XTAP_TAPCELL_ROW_9_126 vssd1 vccd1 sky130_fd_sc_hd__tapvpwrvgnd_1
XFILLER_13_111 vssd1 vssd1 vccd1 vccd1 sky130_fd_sc_hd__fill_1
XFILLER_9_137 vssd1 vssd1 vccd1 vccd1 sky130_fd_sc_hd__fill_1
XFILLER_13_166 vssd1 vssd1 vccd1 vccd1 sky130_fd_sc_hd__fill_2
XFILLER_13_188 vssd1 vssd1 vccd1 vccd1 sky130_fd_sc_hd__fill_1
X_0985_ clknet_3_1__leaf_clk _0030_ net29 vssd1 vssd1 vccd1 vccd1 MATMULT_INST.parallel_out1\[0\]
+ sky130_fd_sc_hd__dfstp_1
XFILLER_27_203 vssd1 vssd1 vccd1 vccd1 sky130_fd_sc_hd__fill_1
XTAP_TAPCELL_ROW_20_175 vssd1 vccd1 sky130_fd_sc_hd__tapvpwrvgnd_1
XFILLER_18_236 vssd1 vssd1 vccd1 vccd1 sky130_fd_sc_hd__fill_8
XFILLER_37_95 vssd1 vssd1 vccd1 vccd1 sky130_fd_sc_hd__fill_1
X_0770_ _0327_ _0064_ _0100_ vssd1 vssd1 vccd1 vccd1 _0328_ sky130_fd_sc_hd__and3b_1
XFILLER_5_184 vssd1 vssd1 vccd1 vccd1 sky130_fd_sc_hd__fill_2
X_0968_ clknet_3_2__leaf_clk _0013_ net31 vssd1 vssd1 vccd1 vccd1 MATMULT_INST.uart_rcv.sbc.stop_bit
+ sky130_fd_sc_hd__dfstp_1
X_0899_ _0409_ _0410_ _0411_ vssd1 vssd1 vccd1 vccd1 _0424_ sky130_fd_sc_hd__o21ba_1
XFILLER_15_206 vssd1 vssd1 vccd1 vccd1 sky130_fd_sc_hd__fill_4
XFILLER_15_239 vssd1 vssd1 vccd1 vccd1 sky130_fd_sc_hd__fill_4
XANTENNA_fanout38_A net39 vssd1 vssd1 vccd1 vccd1 sky130_fd_sc_hd__diode_2
XFILLER_23_42 vssd1 vssd1 vccd1 vccd1 sky130_fd_sc_hd__fill_2
XFILLER_23_86 vssd1 vssd1 vccd1 vccd1 sky130_fd_sc_hd__fill_2
XFILLER_0_57 vccd1 vssd1 vccd1 vssd1 sky130_ef_sc_hd__decap_40_12
XFILLER_9_55 vssd1 vssd1 vccd1 vccd1 sky130_fd_sc_hd__fill_1
X_0822_ _0366_ _0371_ vssd1 vssd1 vccd1 vccd1 _0374_ sky130_fd_sc_hd__nand2_1
X_0753_ net116 _0320_ _0323_ vssd1 vssd1 vccd1 vccd1 _0000_ sky130_fd_sc_hd__nor3_1
X_0684_ _0254_ _0257_ vssd1 vssd1 vccd1 vccd1 MATMULT_INST.uart_rcv.control.next_state\[2\]
+ sky130_fd_sc_hd__nand2_1
XFILLER_20_253 vssd1 vssd1 vccd1 vccd1 sky130_fd_sc_hd__fill_2
XPHY_EDGE_ROW_8_Left_47 vssd1 vssd1 vccd1 vccd1 sky130_fd_sc_hd__decap_3
XFILLER_18_31 vccd1 vssd1 vccd1 vssd1 sky130_ef_sc_hd__decap_40_12
XFILLER_18_75 vssd1 vssd1 vccd1 vccd1 sky130_fd_sc_hd__fill_8
XFILLER_18_97 vssd1 vssd1 vccd1 vccd1 sky130_fd_sc_hd__fill_8
XANTENNA__0767__S net24 vssd1 vssd1 vccd1 vccd1 sky130_fd_sc_hd__diode_2
X_1021_ clknet_3_2__leaf_clk MATMULT_INST.uart_rcv.control.next_state\[2\] net31 vssd1
+ vssd1 vccd1 vccd1 MATMULT_INST.uart_rcv.control.state\[2\] sky130_fd_sc_hd__dfrtp_1
X_0805_ MATMULT_INST.parallel_out1\[5\] MATMULT_INST.parallel_out1\[3\] vssd1 vssd1
+ vccd1 vccd1 _0359_ sky130_fd_sc_hd__nand2_1
X_0736_ MATMULT_INST.prod_adder.gen_for_loop\[0\].adder_n.b MATMULT_INST.prod_adder.gen_for_loop\[0\].adder_n.a
+ vssd1 vssd1 vccd1 vccd1 _0308_ sky130_fd_sc_hd__nor2_1
X_0667_ _0079_ MATMULT_INST.uart_rcv.tim.clock_count.next_cnt_out\[9\] vssd1 vssd1
+ vccd1 vccd1 _0244_ sky130_fd_sc_hd__nor2_1
X_0598_ net10 _0084_ MATMULT_INST.uart_rcv.tim.clk_cnt\[4\] _0071_ _0174_ vssd1 vssd1
+ vccd1 vccd1 _0189_ sky130_fd_sc_hd__o221a_1
XFILLER_37_161 vssd1 vssd1 vccd1 vccd1 sky130_fd_sc_hd__fill_4
XFILLER_29_117 vssd1 vssd1 vccd1 vccd1 sky130_fd_sc_hd__fill_2
XFILLER_28_194 vssd1 vssd1 vccd1 vccd1 sky130_fd_sc_hd__fill_2
X_0452_ MATMULT_INST.cntrl.state\[0\] vssd1 vssd1 vccd1 vccd1 _0064_ sky130_fd_sc_hd__inv_2
X_0521_ _0123_ _0125_ _0126_ _0127_ vssd1 vssd1 vccd1 vccd1 _0128_ sky130_fd_sc_hd__and4_1
XFILLER_13_3 vssd1 vssd1 vccd1 vccd1 sky130_fd_sc_hd__fill_4
XFILLER_34_153 vccd1 vssd1 vccd1 vssd1 sky130_ef_sc_hd__decap_40_12
XFILLER_34_120 vccd1 vssd1 vccd1 vssd1 sky130_ef_sc_hd__decap_40_12
X_1004_ clknet_3_3__leaf_clk MATMULT_INST.uart_rcv.tim.clock_count.next_cnt_out\[1\]
+ net33 vssd1 vssd1 vccd1 vccd1 MATMULT_INST.uart_rcv.tim.clk_cnt\[1\] sky130_fd_sc_hd__dfrtp_1
X_0719_ _0262_ _0263_ vssd1 vssd1 vccd1 vccd1 _0292_ sky130_fd_sc_hd__and2b_1
XFILLER_15_21 vssd1 vssd1 vccd1 vccd1 sky130_fd_sc_hd__fill_1
XFILLER_25_120 vccd1 vssd1 vccd1 vssd1 sky130_ef_sc_hd__decap_40_12
XFILLER_15_43 vssd1 vssd1 vccd1 vccd1 sky130_fd_sc_hd__fill_4
XFILLER_31_53 vssd1 vssd1 vccd1 vccd1 sky130_fd_sc_hd__fill_2
XFILLER_16_175 vssd1 vssd1 vccd1 vccd1 sky130_fd_sc_hd__fill_2
X_0504_ _0108_ _0110_ vssd1 vssd1 vccd1 vccd1 _0111_ sky130_fd_sc_hd__and2b_1
XPHY_EDGE_ROW_37_Left_76 vssd1 vssd1 vccd1 vccd1 sky130_fd_sc_hd__decap_3
Xclkbuf_3_6__f_clk clknet_0_clk vssd1 vssd1 vccd1 vccd1 clknet_3_6__leaf_clk sky130_fd_sc_hd__clkbuf_16
XFILLER_3_57 vccd1 vssd1 vccd1 vssd1 sky130_ef_sc_hd__decap_40_12
X_0984_ clknet_3_1__leaf_clk _0029_ net30 vssd1 vssd1 vccd1 vccd1 MATMULT_INST.parallel_out2\[7\]
+ sky130_fd_sc_hd__dfstp_1
XFILLER_10_137 vssd1 vssd1 vccd1 vccd1 sky130_fd_sc_hd__fill_2
XFILLER_12_33 vssd1 vssd1 vccd1 vccd1 sky130_fd_sc_hd__fill_1
XTAP_TAPCELL_ROW_20_176 vssd1 vccd1 sky130_fd_sc_hd__tapvpwrvgnd_1
XFILLER_18_248 vssd1 vssd1 vccd1 vccd1 sky130_fd_sc_hd__fill_4
XTAP_TAPCELL_ROW_28_210 vssd1 vccd1 sky130_fd_sc_hd__tapvpwrvgnd_1
XFILLER_5_152 vssd1 vssd1 vccd1 vccd1 sky130_fd_sc_hd__fill_1
XTAP_TAPCELL_ROW_11_132 vssd1 vccd1 sky130_fd_sc_hd__tapvpwrvgnd_1
XTAP_TAPCELL_ROW_34_235 vssd1 vccd1 sky130_fd_sc_hd__tapvpwrvgnd_1
XFILLER_24_218 vccd1 vssd1 vccd1 vssd1 sky130_ef_sc_hd__decap_40_12
X_0967_ clknet_3_0__leaf_clk _0012_ net28 vssd1 vssd1 vccd1 vccd1 MATMULT_INST.uart_rcv.data_buff.packet_data\[7\]
+ sky130_fd_sc_hd__dfstp_1
XPHY_EDGE_ROW_12_Right_12 vssd1 vssd1 vccd1 vccd1 sky130_fd_sc_hd__decap_3
X_0898_ _0421_ _0422_ vssd1 vssd1 vccd1 vccd1 _0423_ sky130_fd_sc_hd__and2b_1
XPHY_EDGE_ROW_21_Right_21 vssd1 vssd1 vccd1 vccd1 sky130_fd_sc_hd__decap_3
XFILLER_23_10 vssd1 vssd1 vccd1 vccd1 sky130_fd_sc_hd__fill_2
XFILLER_23_251 vssd1 vssd1 vccd1 vccd1 sky130_fd_sc_hd__fill_4
XANTENNA__0976__SET_B net38 vssd1 vssd1 vccd1 vccd1 sky130_fd_sc_hd__diode_2
XPHY_EDGE_ROW_30_Right_30 vssd1 vssd1 vccd1 vccd1 sky130_fd_sc_hd__decap_3
XFILLER_2_155 vssd1 vssd1 vccd1 vccd1 sky130_fd_sc_hd__fill_2
XFILLER_0_69 vccd1 vssd1 vccd1 vssd1 sky130_ef_sc_hd__decap_40_12
X_0821_ MATMULT_INST.prod_adder.gen_for_loop\[5\].adder_n.a _0373_ net23 vssd1 vssd1
+ vccd1 vccd1 _0019_ sky130_fd_sc_hd__mux2_1
X_0752_ _0108_ _0110_ _0322_ vssd1 vssd1 vccd1 vccd1 _0323_ sky130_fd_sc_hd__a21o_1
XPHY_EDGE_ROW_24_Left_63 vssd1 vssd1 vccd1 vccd1 sky130_fd_sc_hd__decap_3
X_0683_ _0065_ _0253_ vssd1 vssd1 vccd1 vccd1 _0257_ sky130_fd_sc_hd__or2_1
XFILLER_18_43 vssd1 vssd1 vccd1 vccd1 sky130_fd_sc_hd__fill_4
XFILLER_7_225 vccd1 vssd1 vccd1 vssd1 sky130_ef_sc_hd__decap_40_12
XFILLER_11_210 vccd1 vssd1 vccd1 vssd1 sky130_ef_sc_hd__decap_40_12
X_1020_ clknet_3_2__leaf_clk MATMULT_INST.uart_rcv.control.next_state\[1\] net32 vssd1
+ vssd1 vccd1 vccd1 MATMULT_INST.uart_rcv.control.state\[1\] sky130_fd_sc_hd__dfrtp_1
X_0804_ _0356_ _0357_ vssd1 vssd1 vccd1 vccd1 _0358_ sky130_fd_sc_hd__and2b_1
X_0735_ _0267_ _0306_ vssd1 vssd1 vccd1 vccd1 _0307_ sky130_fd_sc_hd__xnor2_1
X_0597_ _0066_ MATMULT_INST.uart_rcv.tim.clk_cnt\[0\] _0175_ _0177_ _0182_ vssd1 vssd1
+ vccd1 vccd1 _0188_ sky130_fd_sc_hd__o2111a_1
X_0666_ _0081_ MATMULT_INST.uart_rcv.tim.clock_count.next_cnt_out\[12\] _0240_ _0242_
+ vssd1 vssd1 vccd1 vccd1 _0243_ sky130_fd_sc_hd__a211o_1
X_0451_ MATMULT_INST.uart_rcv.tim.bit_cnt\[3\] vssd1 vssd1 vccd1 vccd1 _0063_ sky130_fd_sc_hd__inv_2
X_0520_ MATMULT_INST.uart_tx.clk_cnt\[1\] _0068_ MATMULT_INST.uart_tx.clk_cnt\[13\]
+ _0082_ _0119_ vssd1 vssd1 vccd1 vccd1 _0127_ sky130_fd_sc_hd__a221oi_1
XFILLER_34_132 vssd1 vssd1 vccd1 vccd1 sky130_fd_sc_hd__fill_4
X_1003_ clknet_3_3__leaf_clk MATMULT_INST.uart_rcv.tim.clock_count.next_cnt_out\[0\]
+ net33 vssd1 vssd1 vccd1 vccd1 MATMULT_INST.uart_rcv.tim.clk_cnt\[0\] sky130_fd_sc_hd__dfrtp_2
XFILLER_34_165 vccd1 vssd1 vccd1 vssd1 sky130_ef_sc_hd__decap_40_12
XPHY_EDGE_ROW_6_Right_6 vssd1 vssd1 vccd1 vccd1 sky130_fd_sc_hd__decap_3
X_0718_ _0280_ _0290_ vssd1 vssd1 vccd1 vccd1 _0291_ sky130_fd_sc_hd__nor2_1
X_0649_ MATMULT_INST.uart_rcv.tim.clk_cnt\[12\] _0226_ vssd1 vssd1 vccd1 vccd1 _0228_
+ sky130_fd_sc_hd__nor2_1
XPHY_EDGE_ROW_11_Left_50 vssd1 vssd1 vccd1 vccd1 sky130_fd_sc_hd__decap_3
XFILLER_15_66 vssd1 vssd1 vccd1 vccd1 sky130_fd_sc_hd__fill_4
XFILLER_31_98 vssd1 vssd1 vccd1 vccd1 sky130_fd_sc_hd__fill_2
XFILLER_16_121 vssd1 vssd1 vccd1 vccd1 sky130_fd_sc_hd__fill_2
X_0503_ MATMULT_INST.uart_tx.tx_ctrl.state\[0\] _0109_ vssd1 vssd1 vccd1 vccd1 _0110_
+ sky130_fd_sc_hd__nor2_1
XTAP_TAPCELL_ROW_17_160 vssd1 vccd1 sky130_fd_sc_hd__tapvpwrvgnd_1
XFILLER_26_76 vssd1 vssd1 vccd1 vccd1 sky130_fd_sc_hd__fill_1
XFILLER_3_69 vccd1 vssd1 vccd1 vssd1 sky130_ef_sc_hd__decap_40_12
X_0983_ clknet_3_0__leaf_clk _0028_ net28 vssd1 vssd1 vccd1 vccd1 MATMULT_INST.parallel_out2\[6\]
+ sky130_fd_sc_hd__dfstp_1
XTAP_TAPCELL_ROW_6_109 vssd1 vccd1 sky130_fd_sc_hd__tapvpwrvgnd_1
XFILLER_10_105 vccd1 vssd1 vccd1 vssd1 sky130_ef_sc_hd__decap_40_12
XFILLER_5_6 vssd1 vssd1 vccd1 vccd1 sky130_fd_sc_hd__fill_8
XFILLER_37_53 vssd1 vssd1 vccd1 vccd1 sky130_fd_sc_hd__fill_2
XFILLER_18_205 vssd1 vssd1 vccd1 vccd1 sky130_fd_sc_hd__fill_4
XTAP_TAPCELL_ROW_28_211 vssd1 vccd1 sky130_fd_sc_hd__tapvpwrvgnd_1
XTAP_TAPCELL_ROW_11_133 vssd1 vccd1 sky130_fd_sc_hd__tapvpwrvgnd_1
XTAP_TAPCELL_ROW_34_236 vssd1 vccd1 sky130_fd_sc_hd__tapvpwrvgnd_1
X_0966_ clknet_3_0__leaf_clk _0011_ net28 vssd1 vssd1 vccd1 vccd1 MATMULT_INST.uart_rcv.data_buff.packet_data\[6\]
+ sky130_fd_sc_hd__dfstp_1
X_0897_ MATMULT_INST.parallel_out2\[4\] MATMULT_INST.parallel_out2\[3\] _0420_ vssd1
+ vssd1 vccd1 vccd1 _0422_ sky130_fd_sc_hd__a21o_1
XFILLER_23_22 vccd1 vssd1 vccd1 vssd1 sky130_ef_sc_hd__decap_40_12
XFILLER_23_66 vccd1 vssd1 vccd1 vssd1 sky130_ef_sc_hd__decap_40_12
XFILLER_3_3 vccd1 vssd1 vccd1 vssd1 sky130_ef_sc_hd__decap_40_12
X_0820_ _0369_ _0372_ vssd1 vssd1 vccd1 vccd1 _0373_ sky130_fd_sc_hd__xnor2_1
X_0751_ MATMULT_INST.uart_tx.count.roflag_ff MATMULT_INST.uart_tx.tx_ctrl.state\[0\]
+ _0109_ _0321_ vssd1 vssd1 vccd1 vccd1 _0322_ sky130_fd_sc_hd__and4bb_1
XFILLER_36_3 vssd1 vssd1 vccd1 vccd1 sky130_fd_sc_hd__fill_1
XTAP_TAPCELL_ROW_0_80 vssd1 vccd1 sky130_fd_sc_hd__tapvpwrvgnd_1
X_0682_ _0254_ _0256_ vssd1 vssd1 vccd1 vccd1 MATMULT_INST.uart_rcv.control.next_state\[0\]
+ sky130_fd_sc_hd__nand2_1
X_0949_ clknet_3_6__leaf_clk MATMULT_INST.uart_tx.count.next_cnt_out\[3\] net36 vssd1
+ vssd1 vccd1 vccd1 MATMULT_INST.uart_tx.clk_cnt\[3\] sky130_fd_sc_hd__dfrtp_1
XFILLER_34_76 vssd1 vssd1 vccd1 vccd1 sky130_fd_sc_hd__fill_2
XFILLER_7_237 vccd1 vssd1 vccd1 vssd1 sky130_ef_sc_hd__decap_40_12
XFILLER_11_222 vssd1 vssd1 vccd1 vccd1 sky130_fd_sc_hd__fill_2
XFILLER_38_119 vssd1 vssd1 vccd1 vccd1 sky130_fd_sc_hd__fill_1
X_0803_ MATMULT_INST.parallel_out1\[6\] MATMULT_INST.parallel_out1\[2\] MATMULT_INST.parallel_out1\[7\]
+ MATMULT_INST.parallel_out1\[1\] vssd1 vssd1 vccd1 vccd1 _0357_ sky130_fd_sc_hd__a22o_1
X_0734_ _0264_ _0266_ vssd1 vssd1 vccd1 vccd1 _0306_ sky130_fd_sc_hd__nor2_1
X_0665_ net4 _0224_ _0230_ net6 _0241_ vssd1 vssd1 vccd1 vccd1 _0242_ sky130_fd_sc_hd__a221o_1
X_0596_ net3 _0086_ _0184_ _0185_ _0186_ vssd1 vssd1 vccd1 vccd1 _0187_ sky130_fd_sc_hd__o2111a_1
XFILLER_37_174 vssd1 vssd1 vccd1 vccd1 sky130_fd_sc_hd__fill_2
XFILLER_4_207 vccd1 vssd1 vccd1 vssd1 sky130_ef_sc_hd__decap_40_12
Xhold10 MATMULT_INST.cntrl.state\[4\] vssd1 vssd1 vccd1 vccd1 net115 sky130_fd_sc_hd__dlygate4sd3_1
XFILLER_29_54 vssd1 vssd1 vccd1 vccd1 sky130_fd_sc_hd__fill_2
XANTENNA__1011__RESET_B net38 vssd1 vssd1 vccd1 vccd1 sky130_fd_sc_hd__diode_2
X_0450_ MATMULT_INST.uart_rcv.control.packet_done vssd1 vssd1 vccd1 vccd1 _0062_ sky130_fd_sc_hd__inv_2
XFILLER_19_196 vssd1 vssd1 vccd1 vccd1 sky130_fd_sc_hd__fill_2
X_1002_ clknet_3_2__leaf_clk MATMULT_INST.uart_rcv.tim.bit_count.next_roflag net32
+ vssd1 vssd1 vccd1 vccd1 MATMULT_INST.uart_rcv.control.packet_done sky130_fd_sc_hd__dfrtp_1
X_0717_ MATMULT_INST.uart_tx.tx_ctrl.state\[4\] MATMULT_INST.uart_tx.tx_ctrl.state\[2\]
+ MATMULT_INST.uart_tx.tx_ctrl.state\[3\] vssd1 vssd1 vccd1 vccd1 _0290_ sky130_fd_sc_hd__or3b_1
X_0648_ _0227_ vssd1 vssd1 vccd1 vccd1 MATMULT_INST.uart_rcv.tim.clock_count.next_cnt_out\[11\]
+ sky130_fd_sc_hd__inv_2
X_0579_ _0161_ _0169_ _0170_ _0171_ vssd1 vssd1 vccd1 vccd1 _0172_ sky130_fd_sc_hd__and4b_1
XFILLER_25_111 vssd1 vssd1 vccd1 vccd1 sky130_fd_sc_hd__fill_1
XFILLER_25_155 vssd1 vssd1 vccd1 vccd1 sky130_fd_sc_hd__fill_1
XFILLER_31_55 vssd1 vssd1 vccd1 vccd1 sky130_fd_sc_hd__fill_1
XFILLER_0_221 vssd1 vssd1 vccd1 vccd1 sky130_fd_sc_hd__fill_2
XANTENNA_clkbuf_3_1__f_clk_A clknet_0_clk vssd1 vssd1 vccd1 vccd1 sky130_fd_sc_hd__diode_2
XFILLER_16_177 vssd1 vssd1 vccd1 vccd1 sky130_fd_sc_hd__fill_1
XFILLER_31_158 vssd1 vssd1 vccd1 vccd1 sky130_fd_sc_hd__fill_8
X_0502_ MATMULT_INST.uart_tx.tx_ctrl.state\[4\] MATMULT_INST.uart_tx.tx_ctrl.state\[1\]
+ MATMULT_INST.uart_tx.tx_ctrl.state\[2\] MATMULT_INST.uart_tx.tx_ctrl.state\[3\]
+ vssd1 vssd1 vccd1 vccd1 _0109_ sky130_fd_sc_hd__or4_1
XTAP_TAPCELL_ROW_17_161 vssd1 vccd1 sky130_fd_sc_hd__tapvpwrvgnd_1
XFILLER_22_158 vccd1 vssd1 vccd1 vssd1 sky130_ef_sc_hd__decap_40_12
XFILLER_9_129 vssd1 vssd1 vccd1 vccd1 sky130_fd_sc_hd__fill_2
XTAP_TAPCELL_ROW_23_186 vssd1 vccd1 sky130_fd_sc_hd__tapvpwrvgnd_1
XFILLER_36_217 vssd1 vssd1 vccd1 vccd1 sky130_fd_sc_hd__fill_4
XFILLER_3_15 vccd1 vssd1 vccd1 vssd1 sky130_ef_sc_hd__decap_40_12
XFILLER_8_195 vssd1 vssd1 vccd1 vccd1 sky130_fd_sc_hd__fill_1
X_0982_ clknet_3_1__leaf_clk _0027_ net28 vssd1 vssd1 vccd1 vccd1 MATMULT_INST.parallel_out2\[5\]
+ sky130_fd_sc_hd__dfstp_1
XFILLER_10_117 vccd1 vssd1 vccd1 vssd1 sky130_ef_sc_hd__decap_40_12
XFILLER_10_139 vssd1 vssd1 vccd1 vccd1 sky130_fd_sc_hd__fill_1
XFILLER_12_24 vssd1 vssd1 vccd1 vccd1 sky130_fd_sc_hd__fill_4
XFILLER_12_68 vssd1 vssd1 vccd1 vccd1 sky130_fd_sc_hd__fill_2
XFILLER_37_21 vssd1 vssd1 vccd1 vccd1 sky130_fd_sc_hd__fill_4
XTAP_TAPCELL_ROW_28_212 vssd1 vccd1 sky130_fd_sc_hd__tapvpwrvgnd_1
XTAP_TAPCELL_ROW_11_134 vssd1 vccd1 sky130_fd_sc_hd__tapvpwrvgnd_1
XFILLER_5_176 vssd1 vssd1 vccd1 vccd1 sky130_fd_sc_hd__fill_8
XFILLER_5_132 vccd1 vssd1 vccd1 vssd1 sky130_ef_sc_hd__decap_40_12
XTAP_TAPCELL_ROW_34_237 vssd1 vccd1 sky130_fd_sc_hd__tapvpwrvgnd_1
XFILLER_32_253 vssd1 vssd1 vccd1 vccd1 sky130_fd_sc_hd__fill_2
X_0965_ clknet_3_0__leaf_clk _0010_ net28 vssd1 vssd1 vccd1 vccd1 MATMULT_INST.uart_rcv.data_buff.packet_data\[5\]
+ sky130_fd_sc_hd__dfstp_1
X_0896_ MATMULT_INST.parallel_out2\[4\] MATMULT_INST.parallel_out2\[3\] _0420_ vssd1
+ vssd1 vccd1 vccd1 _0421_ sky130_fd_sc_hd__and3_1
XFILLER_23_12 vssd1 vssd1 vccd1 vccd1 sky130_fd_sc_hd__fill_1
XFILLER_23_34 vssd1 vssd1 vccd1 vccd1 sky130_fd_sc_hd__fill_8
XFILLER_23_78 vssd1 vssd1 vccd1 vccd1 sky130_fd_sc_hd__fill_8
XFILLER_2_157 vssd1 vssd1 vccd1 vccd1 sky130_fd_sc_hd__fill_1
XFILLER_0_16 vssd1 vssd1 vccd1 vccd1 sky130_fd_sc_hd__fill_1
XFILLER_0_27 vssd1 vssd1 vccd1 vccd1 sky130_fd_sc_hd__fill_1
XFILLER_14_253 vssd1 vssd1 vccd1 vccd1 sky130_fd_sc_hd__fill_2
X_0750_ MATMULT_INST.uart_tx.tx_ctrl.state\[1\] MATMULT_INST.uart_tx.tx_ctrl.state\[3\]
+ _0320_ vssd1 vssd1 vccd1 vccd1 _0321_ sky130_fd_sc_hd__o21ai_1
X_0681_ MATMULT_INST.uart_rcv.control.packet_done _0196_ _0255_ MATMULT_INST.uart_rcv.control.state\[2\]
+ vssd1 vssd1 vccd1 vccd1 _0256_ sky130_fd_sc_hd__o2bb2a_1
XTAP_TAPCELL_ROW_0_81 vssd1 vccd1 sky130_fd_sc_hd__tapvpwrvgnd_1
X_0948_ clknet_3_6__leaf_clk MATMULT_INST.uart_tx.count.next_cnt_out\[2\] net38 vssd1
+ vssd1 vccd1 vccd1 MATMULT_INST.uart_tx.clk_cnt\[2\] sky130_fd_sc_hd__dfrtp_1
X_0879_ MATMULT_INST.parallel_out2\[0\] MATMULT_INST.parallel_out2\[5\] MATMULT_INST.parallel_out2\[1\]
+ MATMULT_INST.parallel_out2\[4\] vssd1 vssd1 vccd1 vccd1 _0406_ sky130_fd_sc_hd__a22o_1
XFILLER_34_55 vssd1 vssd1 vccd1 vccd1 sky130_fd_sc_hd__fill_1
XANTENNA_fanout36_A net39 vssd1 vssd1 vccd1 vccd1 sky130_fd_sc_hd__diode_2
XFILLER_7_249 vssd1 vssd1 vccd1 vccd1 sky130_fd_sc_hd__fill_2
X_0802_ MATMULT_INST.parallel_out1\[1\] MATMULT_INST.parallel_out1\[6\] MATMULT_INST.parallel_out1\[2\]