* NGSPICE file created from team_07.ext - technology: sky130A

* Black-box entry subcircuit for sky130_fd_sc_hd__mux4_1 abstract view
.subckt sky130_fd_sc_hd__mux4_1 A0 A1 A2 A3 S0 S1 VGND VNB VPB VPWR X
.ends

* Black-box entry subcircuit for sky130_fd_sc_hd__diode_2 abstract view
.subckt sky130_fd_sc_hd__diode_2 DIODE VGND VNB VPB VPWR
.ends

* Black-box entry subcircuit for sky130_fd_sc_hd__a21oi_4 abstract view
.subckt sky130_fd_sc_hd__a21oi_4 A1 A2 B1 VGND VNB VPB VPWR Y
.ends

* Black-box entry subcircuit for sky130_fd_sc_hd__mux2_1 abstract view
.subckt sky130_fd_sc_hd__mux2_1 A0 A1 S VGND VNB VPB VPWR X
.ends

* Black-box entry subcircuit for sky130_fd_sc_hd__tapvpwrvgnd_1 abstract view
.subckt sky130_fd_sc_hd__tapvpwrvgnd_1 VGND VPWR
.ends

* Black-box entry subcircuit for sky130_fd_sc_hd__a32o_1 abstract view
.subckt sky130_fd_sc_hd__a32o_1 A1 A2 A3 B1 B2 VGND VNB VPB VPWR X
.ends

* Black-box entry subcircuit for sky130_ef_sc_hd__decap_40_12 abstract view
.subckt sky130_ef_sc_hd__decap_40_12 VPWR VGND VPB VNB
.ends

* Black-box entry subcircuit for sky130_fd_sc_hd__nand3_2 abstract view
.subckt sky130_fd_sc_hd__nand3_2 A B C VGND VNB VPB VPWR Y
.ends

* Black-box entry subcircuit for sky130_fd_sc_hd__fill_1 abstract view
.subckt sky130_fd_sc_hd__fill_1 VGND VNB VPB VPWR
.ends

* Black-box entry subcircuit for sky130_fd_sc_hd__xnor2_1 abstract view
.subckt sky130_fd_sc_hd__xnor2_1 A B VGND VNB VPB VPWR Y
.ends

* Black-box entry subcircuit for sky130_fd_sc_hd__inv_2 abstract view
.subckt sky130_fd_sc_hd__inv_2 A VGND VNB VPB VPWR Y
.ends

* Black-box entry subcircuit for sky130_fd_sc_hd__a21bo_1 abstract view
.subckt sky130_fd_sc_hd__a21bo_1 A1 A2 B1_N VGND VNB VPB VPWR X
.ends

* Black-box entry subcircuit for sky130_fd_sc_hd__or2_1 abstract view
.subckt sky130_fd_sc_hd__or2_1 A B VGND VNB VPB VPWR X
.ends

* Black-box entry subcircuit for sky130_fd_sc_hd__a21o_1 abstract view
.subckt sky130_fd_sc_hd__a21o_1 A1 A2 B1 VGND VNB VPB VPWR X
.ends

* Black-box entry subcircuit for sky130_fd_sc_hd__decap_3 abstract view
.subckt sky130_fd_sc_hd__decap_3 VGND VNB VPB VPWR
.ends

* Black-box entry subcircuit for sky130_fd_sc_hd__dlygate4sd3_1 abstract view
.subckt sky130_fd_sc_hd__dlygate4sd3_1 A VGND VNB VPB VPWR X
.ends

* Black-box entry subcircuit for sky130_fd_sc_hd__clkbuf_4 abstract view
.subckt sky130_fd_sc_hd__clkbuf_4 A VGND VNB VPB VPWR X
.ends

* Black-box entry subcircuit for sky130_fd_sc_hd__buf_4 abstract view
.subckt sky130_fd_sc_hd__buf_4 A VGND VNB VPB VPWR X
.ends

* Black-box entry subcircuit for sky130_fd_sc_hd__buf_2 abstract view
.subckt sky130_fd_sc_hd__buf_2 A VGND VNB VPB VPWR X
.ends

* Black-box entry subcircuit for sky130_fd_sc_hd__nand2_1 abstract view
.subckt sky130_fd_sc_hd__nand2_1 A B VGND VNB VPB VPWR Y
.ends

* Black-box entry subcircuit for sky130_fd_sc_hd__fill_2 abstract view
.subckt sky130_fd_sc_hd__fill_2 VGND VNB VPB VPWR
.ends

* Black-box entry subcircuit for sky130_fd_sc_hd__dfrtp_1 abstract view
.subckt sky130_fd_sc_hd__dfrtp_1 CLK D RESET_B VGND VNB VPB VPWR Q
.ends

* Black-box entry subcircuit for sky130_fd_sc_hd__fill_4 abstract view
.subckt sky130_fd_sc_hd__fill_4 VGND VNB VPB VPWR
.ends

* Black-box entry subcircuit for sky130_fd_sc_hd__clkbuf_1 abstract view
.subckt sky130_fd_sc_hd__clkbuf_1 A VGND VNB VPB VPWR X
.ends

* Black-box entry subcircuit for sky130_fd_sc_hd__clkbuf_2 abstract view
.subckt sky130_fd_sc_hd__clkbuf_2 A VGND VNB VPB VPWR X
.ends

* Black-box entry subcircuit for sky130_fd_sc_hd__o221a_4 abstract view
.subckt sky130_fd_sc_hd__o221a_4 A1 A2 B1 B2 C1 VGND VNB VPB VPWR X
.ends

* Black-box entry subcircuit for sky130_fd_sc_hd__o21ai_1 abstract view
.subckt sky130_fd_sc_hd__o21ai_1 A1 A2 B1 VGND VNB VPB VPWR Y
.ends

* Black-box entry subcircuit for sky130_fd_sc_hd__a31o_1 abstract view
.subckt sky130_fd_sc_hd__a31o_1 A1 A2 A3 B1 VGND VNB VPB VPWR X
.ends

* Black-box entry subcircuit for sky130_fd_sc_hd__nand2_2 abstract view
.subckt sky130_fd_sc_hd__nand2_2 A B VGND VNB VPB VPWR Y
.ends

* Black-box entry subcircuit for sky130_fd_sc_hd__a22o_1 abstract view
.subckt sky130_fd_sc_hd__a22o_1 A1 A2 B1 B2 VGND VNB VPB VPWR X
.ends

* Black-box entry subcircuit for sky130_fd_sc_hd__nor2_1 abstract view
.subckt sky130_fd_sc_hd__nor2_1 A B VGND VNB VPB VPWR Y
.ends

* Black-box entry subcircuit for sky130_fd_sc_hd__nor3_1 abstract view
.subckt sky130_fd_sc_hd__nor3_1 A B C VGND VNB VPB VPWR Y
.ends

* Black-box entry subcircuit for sky130_fd_sc_hd__a221o_1 abstract view
.subckt sky130_fd_sc_hd__a221o_1 A1 A2 B1 B2 C1 VGND VNB VPB VPWR X
.ends

* Black-box entry subcircuit for sky130_fd_sc_hd__conb_1 abstract view
.subckt sky130_fd_sc_hd__conb_1 VGND VNB VPB VPWR HI LO
.ends

* Black-box entry subcircuit for sky130_fd_sc_hd__fill_8 abstract view
.subckt sky130_fd_sc_hd__fill_8 VGND VNB VPB VPWR
.ends

* Black-box entry subcircuit for sky130_fd_sc_hd__clkbuf_8 abstract view
.subckt sky130_fd_sc_hd__clkbuf_8 A VGND VNB VPB VPWR X
.ends

* Black-box entry subcircuit for sky130_fd_sc_hd__and2_1 abstract view
.subckt sky130_fd_sc_hd__and2_1 A B VGND VNB VPB VPWR X
.ends

* Black-box entry subcircuit for sky130_fd_sc_hd__and3_1 abstract view
.subckt sky130_fd_sc_hd__and3_1 A B C VGND VNB VPB VPWR X
.ends

* Black-box entry subcircuit for sky130_fd_sc_hd__or4bb_1 abstract view
.subckt sky130_fd_sc_hd__or4bb_1 A B C_N D_N VGND VNB VPB VPWR X
.ends

* Black-box entry subcircuit for sky130_fd_sc_hd__o211a_1 abstract view
.subckt sky130_fd_sc_hd__o211a_1 A1 A2 B1 C1 VGND VNB VPB VPWR X
.ends

* Black-box entry subcircuit for sky130_fd_sc_hd__a21oi_1 abstract view
.subckt sky130_fd_sc_hd__a21oi_1 A1 A2 B1 VGND VNB VPB VPWR Y
.ends

* Black-box entry subcircuit for sky130_fd_sc_hd__o31a_1 abstract view
.subckt sky130_fd_sc_hd__o31a_1 A1 A2 A3 B1 VGND VNB VPB VPWR X
.ends

* Black-box entry subcircuit for sky130_fd_sc_hd__and2b_1 abstract view
.subckt sky130_fd_sc_hd__and2b_1 A_N B VGND VNB VPB VPWR X
.ends

* Black-box entry subcircuit for sky130_fd_sc_hd__o21bai_1 abstract view
.subckt sky130_fd_sc_hd__o21bai_1 A1 A2 B1_N VGND VNB VPB VPWR Y
.ends

* Black-box entry subcircuit for sky130_fd_sc_hd__o32ai_4 abstract view
.subckt sky130_fd_sc_hd__o32ai_4 A1 A2 A3 B1 B2 VGND VNB VPB VPWR Y
.ends

* Black-box entry subcircuit for sky130_fd_sc_hd__xor2_1 abstract view
.subckt sky130_fd_sc_hd__xor2_1 A B VGND VNB VPB VPWR X
.ends

* Black-box entry subcircuit for sky130_fd_sc_hd__clkinvlp_4 abstract view
.subckt sky130_fd_sc_hd__clkinvlp_4 A VGND VNB VPB VPWR Y
.ends

* Black-box entry subcircuit for sky130_fd_sc_hd__dfrtp_4 abstract view
.subckt sky130_fd_sc_hd__dfrtp_4 CLK D RESET_B VGND VNB VPB VPWR Q
.ends

* Black-box entry subcircuit for sky130_fd_sc_hd__dfrtp_2 abstract view
.subckt sky130_fd_sc_hd__dfrtp_2 CLK D RESET_B VGND VNB VPB VPWR Q
.ends

* Black-box entry subcircuit for sky130_fd_sc_hd__and4_1 abstract view
.subckt sky130_fd_sc_hd__and4_1 A B C D VGND VNB VPB VPWR X
.ends

* Black-box entry subcircuit for sky130_fd_sc_hd__o221a_1 abstract view
.subckt sky130_fd_sc_hd__o221a_1 A1 A2 B1 B2 C1 VGND VNB VPB VPWR X
.ends

* Black-box entry subcircuit for sky130_fd_sc_hd__o21a_1 abstract view
.subckt sky130_fd_sc_hd__o21a_1 A1 A2 B1 VGND VNB VPB VPWR X
.ends

* Black-box entry subcircuit for sky130_fd_sc_hd__o211a_4 abstract view
.subckt sky130_fd_sc_hd__o211a_4 A1 A2 B1 C1 VGND VNB VPB VPWR X
.ends

* Black-box entry subcircuit for sky130_fd_sc_hd__mux2_2 abstract view
.subckt sky130_fd_sc_hd__mux2_2 A0 A1 S VGND VNB VPB VPWR X
.ends

* Black-box entry subcircuit for sky130_fd_sc_hd__o22a_1 abstract view
.subckt sky130_fd_sc_hd__o22a_1 A1 A2 B1 B2 VGND VNB VPB VPWR X
.ends

* Black-box entry subcircuit for sky130_fd_sc_hd__nand3_1 abstract view
.subckt sky130_fd_sc_hd__nand3_1 A B C VGND VNB VPB VPWR Y
.ends

* Black-box entry subcircuit for sky130_fd_sc_hd__or4_1 abstract view
.subckt sky130_fd_sc_hd__or4_1 A B C D VGND VNB VPB VPWR X
.ends

* Black-box entry subcircuit for sky130_fd_sc_hd__a2bb2o_1 abstract view
.subckt sky130_fd_sc_hd__a2bb2o_1 A1_N A2_N B1 B2 VGND VNB VPB VPWR X
.ends

* Black-box entry subcircuit for sky130_fd_sc_hd__nor2_2 abstract view
.subckt sky130_fd_sc_hd__nor2_2 A B VGND VNB VPB VPWR Y
.ends

* Black-box entry subcircuit for sky130_fd_sc_hd__and2_2 abstract view
.subckt sky130_fd_sc_hd__and2_2 A B VGND VNB VPB VPWR X
.ends

* Black-box entry subcircuit for sky130_fd_sc_hd__or3_1 abstract view
.subckt sky130_fd_sc_hd__or3_1 A B C VGND VNB VPB VPWR X
.ends

* Black-box entry subcircuit for sky130_fd_sc_hd__a211oi_2 abstract view
.subckt sky130_fd_sc_hd__a211oi_2 A1 A2 B1 C1 VGND VNB VPB VPWR Y
.ends

* Black-box entry subcircuit for sky130_fd_sc_hd__dlymetal6s2s_1 abstract view
.subckt sky130_fd_sc_hd__dlymetal6s2s_1 A VGND VNB VPB VPWR X
.ends

* Black-box entry subcircuit for sky130_fd_sc_hd__o41ai_1 abstract view
.subckt sky130_fd_sc_hd__o41ai_1 A1 A2 A3 A4 B1 VGND VNB VPB VPWR Y
.ends

* Black-box entry subcircuit for sky130_fd_sc_hd__o32a_4 abstract view
.subckt sky130_fd_sc_hd__o32a_4 A1 A2 A3 B1 B2 VGND VNB VPB VPWR X
.ends

* Black-box entry subcircuit for sky130_fd_sc_hd__inv_8 abstract view
.subckt sky130_fd_sc_hd__inv_8 A VGND VNB VPB VPWR Y
.ends

* Black-box entry subcircuit for sky130_fd_sc_hd__xor2_2 abstract view
.subckt sky130_fd_sc_hd__xor2_2 A B VGND VNB VPB VPWR X
.ends

* Black-box entry subcircuit for sky130_fd_sc_hd__clkinv_8 abstract view
.subckt sky130_fd_sc_hd__clkinv_8 A VGND VNB VPB VPWR Y
.ends

* Black-box entry subcircuit for sky130_fd_sc_hd__nor4_1 abstract view
.subckt sky130_fd_sc_hd__nor4_1 A B C D VGND VNB VPB VPWR Y
.ends

* Black-box entry subcircuit for sky130_fd_sc_hd__a211o_1 abstract view
.subckt sky130_fd_sc_hd__a211o_1 A1 A2 B1 C1 VGND VNB VPB VPWR X
.ends

* Black-box entry subcircuit for sky130_fd_sc_hd__a21oi_2 abstract view
.subckt sky130_fd_sc_hd__a21oi_2 A1 A2 B1 VGND VNB VPB VPWR Y
.ends

* Black-box entry subcircuit for sky130_fd_sc_hd__a21boi_4 abstract view
.subckt sky130_fd_sc_hd__a21boi_4 A1 A2 B1_N VGND VNB VPB VPWR Y
.ends

* Black-box entry subcircuit for sky130_fd_sc_hd__or4_2 abstract view
.subckt sky130_fd_sc_hd__or4_2 A B C D VGND VNB VPB VPWR X
.ends

* Black-box entry subcircuit for sky130_fd_sc_hd__nand4_2 abstract view
.subckt sky130_fd_sc_hd__nand4_2 A B C D VGND VNB VPB VPWR Y
.ends

* Black-box entry subcircuit for sky130_fd_sc_hd__o31ai_1 abstract view
.subckt sky130_fd_sc_hd__o31ai_1 A1 A2 A3 B1 VGND VNB VPB VPWR Y
.ends

* Black-box entry subcircuit for sky130_fd_sc_hd__xnor2_2 abstract view
.subckt sky130_fd_sc_hd__xnor2_2 A B VGND VNB VPB VPWR Y
.ends

* Black-box entry subcircuit for sky130_fd_sc_hd__or3b_1 abstract view
.subckt sky130_fd_sc_hd__or3b_1 A B C_N VGND VNB VPB VPWR X
.ends

* Black-box entry subcircuit for sky130_fd_sc_hd__or2_4 abstract view
.subckt sky130_fd_sc_hd__or2_4 A B VGND VNB VPB VPWR X
.ends

* Black-box entry subcircuit for sky130_fd_sc_hd__o211a_2 abstract view
.subckt sky130_fd_sc_hd__o211a_2 A1 A2 B1 C1 VGND VNB VPB VPWR X
.ends

* Black-box entry subcircuit for sky130_fd_sc_hd__nand2_4 abstract view
.subckt sky130_fd_sc_hd__nand2_4 A B VGND VNB VPB VPWR Y
.ends

* Black-box entry subcircuit for sky130_fd_sc_hd__a311o_1 abstract view
.subckt sky130_fd_sc_hd__a311o_1 A1 A2 A3 B1 C1 VGND VNB VPB VPWR X
.ends

* Black-box entry subcircuit for sky130_fd_sc_hd__o21ba_1 abstract view
.subckt sky130_fd_sc_hd__o21ba_1 A1 A2 B1_N VGND VNB VPB VPWR X
.ends

* Black-box entry subcircuit for sky130_fd_sc_hd__o211ai_2 abstract view
.subckt sky130_fd_sc_hd__o211ai_2 A1 A2 B1 C1 VGND VNB VPB VPWR Y
.ends

* Black-box entry subcircuit for sky130_fd_sc_hd__clkinv_16 abstract view
.subckt sky130_fd_sc_hd__clkinv_16 A VGND VNB VPB VPWR Y
.ends

* Black-box entry subcircuit for sky130_fd_sc_hd__inv_16 abstract view
.subckt sky130_fd_sc_hd__inv_16 A VGND VNB VPB VPWR Y
.ends

* Black-box entry subcircuit for sky130_fd_sc_hd__a211oi_1 abstract view
.subckt sky130_fd_sc_hd__a211oi_1 A1 A2 B1 C1 VGND VNB VPB VPWR Y
.ends

* Black-box entry subcircuit for sky130_fd_sc_hd__a41o_1 abstract view
.subckt sky130_fd_sc_hd__a41o_1 A1 A2 A3 A4 B1 VGND VNB VPB VPWR X
.ends

* Black-box entry subcircuit for sky130_fd_sc_hd__o2bb2a_2 abstract view
.subckt sky130_fd_sc_hd__o2bb2a_2 A1_N A2_N B1 B2 VGND VNB VPB VPWR X
.ends

* Black-box entry subcircuit for sky130_fd_sc_hd__o21ai_4 abstract view
.subckt sky130_fd_sc_hd__o21ai_4 A1 A2 B1 VGND VNB VPB VPWR Y
.ends

* Black-box entry subcircuit for sky130_fd_sc_hd__and3b_1 abstract view
.subckt sky130_fd_sc_hd__and3b_1 A_N B C VGND VNB VPB VPWR X
.ends

* Black-box entry subcircuit for sky130_fd_sc_hd__mux4_2 abstract view
.subckt sky130_fd_sc_hd__mux4_2 A0 A1 A2 A3 S0 S1 VGND VNB VPB VPWR X
.ends

* Black-box entry subcircuit for sky130_fd_sc_hd__o21ai_2 abstract view
.subckt sky130_fd_sc_hd__o21ai_2 A1 A2 B1 VGND VNB VPB VPWR Y
.ends

* Black-box entry subcircuit for sky130_fd_sc_hd__inv_6 abstract view
.subckt sky130_fd_sc_hd__inv_6 A VGND VNB VPB VPWR Y
.ends

* Black-box entry subcircuit for sky130_fd_sc_hd__and4b_1 abstract view
.subckt sky130_fd_sc_hd__and4b_1 A_N B C D VGND VNB VPB VPWR X
.ends

* Black-box entry subcircuit for sky130_fd_sc_hd__a22o_2 abstract view
.subckt sky130_fd_sc_hd__a22o_2 A1 A2 B1 B2 VGND VNB VPB VPWR X
.ends

* Black-box entry subcircuit for sky130_fd_sc_hd__nand3_4 abstract view
.subckt sky130_fd_sc_hd__nand3_4 A B C VGND VNB VPB VPWR Y
.ends

* Black-box entry subcircuit for sky130_fd_sc_hd__o221ai_4 abstract view
.subckt sky130_fd_sc_hd__o221ai_4 A1 A2 B1 B2 C1 VGND VNB VPB VPWR Y
.ends

* Black-box entry subcircuit for sky130_fd_sc_hd__o2bb2a_1 abstract view
.subckt sky130_fd_sc_hd__o2bb2a_1 A1_N A2_N B1 B2 VGND VNB VPB VPWR X
.ends

* Black-box entry subcircuit for sky130_fd_sc_hd__or4b_1 abstract view
.subckt sky130_fd_sc_hd__or4b_1 A B C D_N VGND VNB VPB VPWR X
.ends

* Black-box entry subcircuit for sky130_fd_sc_hd__o21ba_2 abstract view
.subckt sky130_fd_sc_hd__o21ba_2 A1 A2 B1_N VGND VNB VPB VPWR X
.ends

* Black-box entry subcircuit for sky130_fd_sc_hd__a2111o_1 abstract view
.subckt sky130_fd_sc_hd__a2111o_1 A1 A2 B1 C1 D1 VGND VNB VPB VPWR X
.ends

* Black-box entry subcircuit for sky130_fd_sc_hd__buf_6 abstract view
.subckt sky130_fd_sc_hd__buf_6 A VGND VNB VPB VPWR X
.ends

* Black-box entry subcircuit for sky130_fd_sc_hd__inv_4 abstract view
.subckt sky130_fd_sc_hd__inv_4 A VGND VNB VPB VPWR Y
.ends

* Black-box entry subcircuit for sky130_fd_sc_hd__nand2b_1 abstract view
.subckt sky130_fd_sc_hd__nand2b_1 A_N B VGND VNB VPB VPWR Y
.ends

* Black-box entry subcircuit for sky130_fd_sc_hd__and4bb_1 abstract view
.subckt sky130_fd_sc_hd__and4bb_1 A_N B_N C D VGND VNB VPB VPWR X
.ends

* Black-box entry subcircuit for sky130_fd_sc_hd__mux2_4 abstract view
.subckt sky130_fd_sc_hd__mux2_4 A0 A1 S VGND VNB VPB VPWR X
.ends

* Black-box entry subcircuit for sky130_fd_sc_hd__o2111ai_1 abstract view
.subckt sky130_fd_sc_hd__o2111ai_1 A1 A2 B1 C1 D1 VGND VNB VPB VPWR Y
.ends

* Black-box entry subcircuit for sky130_fd_sc_hd__or2_2 abstract view
.subckt sky130_fd_sc_hd__or2_2 A B VGND VNB VPB VPWR X
.ends

* Black-box entry subcircuit for sky130_fd_sc_hd__o31ai_2 abstract view
.subckt sky130_fd_sc_hd__o31ai_2 A1 A2 A3 B1 VGND VNB VPB VPWR Y
.ends

* Black-box entry subcircuit for sky130_fd_sc_hd__o41a_1 abstract view
.subckt sky130_fd_sc_hd__o41a_1 A1 A2 A3 A4 B1 VGND VNB VPB VPWR X
.ends

* Black-box entry subcircuit for sky130_fd_sc_hd__o2bb2a_4 abstract view
.subckt sky130_fd_sc_hd__o2bb2a_4 A1_N A2_N B1 B2 VGND VNB VPB VPWR X
.ends

* Black-box entry subcircuit for sky130_fd_sc_hd__a21boi_1 abstract view
.subckt sky130_fd_sc_hd__a21boi_1 A1 A2 B1_N VGND VNB VPB VPWR Y
.ends

* Black-box entry subcircuit for sky130_fd_sc_hd__or3_4 abstract view
.subckt sky130_fd_sc_hd__or3_4 A B C VGND VNB VPB VPWR X
.ends

* Black-box entry subcircuit for sky130_fd_sc_hd__o311a_1 abstract view
.subckt sky130_fd_sc_hd__o311a_1 A1 A2 A3 B1 C1 VGND VNB VPB VPWR X
.ends

* Black-box entry subcircuit for sky130_fd_sc_hd__a2bb2o_4 abstract view
.subckt sky130_fd_sc_hd__a2bb2o_4 A1_N A2_N B1 B2 VGND VNB VPB VPWR X
.ends

* Black-box entry subcircuit for sky130_fd_sc_hd__and2_4 abstract view
.subckt sky130_fd_sc_hd__and2_4 A B VGND VNB VPB VPWR X
.ends

* Black-box entry subcircuit for sky130_fd_sc_hd__nor2_4 abstract view
.subckt sky130_fd_sc_hd__nor2_4 A B VGND VNB VPB VPWR Y
.ends

* Black-box entry subcircuit for sky130_fd_sc_hd__inv_12 abstract view
.subckt sky130_fd_sc_hd__inv_12 A VGND VNB VPB VPWR Y
.ends

* Black-box entry subcircuit for sky130_fd_sc_hd__o32a_1 abstract view
.subckt sky130_fd_sc_hd__o32a_1 A1 A2 A3 B1 B2 VGND VNB VPB VPWR X
.ends

* Black-box entry subcircuit for sky130_fd_sc_hd__o21bai_2 abstract view
.subckt sky130_fd_sc_hd__o21bai_2 A1 A2 B1_N VGND VNB VPB VPWR Y
.ends

* Black-box entry subcircuit for sky130_fd_sc_hd__a221o_2 abstract view
.subckt sky130_fd_sc_hd__a221o_2 A1 A2 B1 B2 C1 VGND VNB VPB VPWR X
.ends

* Black-box entry subcircuit for sky130_fd_sc_hd__nand2b_2 abstract view
.subckt sky130_fd_sc_hd__nand2b_2 A_N B VGND VNB VPB VPWR Y
.ends

* Black-box entry subcircuit for sky130_fd_sc_hd__buf_8 abstract view
.subckt sky130_fd_sc_hd__buf_8 A VGND VNB VPB VPWR X
.ends

* Black-box entry subcircuit for sky130_fd_sc_hd__nand3b_2 abstract view
.subckt sky130_fd_sc_hd__nand3b_2 A_N B C VGND VNB VPB VPWR Y
.ends

* Black-box entry subcircuit for sky130_fd_sc_hd__clkbuf_16 abstract view
.subckt sky130_fd_sc_hd__clkbuf_16 A VGND VNB VPB VPWR X
.ends

* Black-box entry subcircuit for sky130_fd_sc_hd__o211ai_1 abstract view
.subckt sky130_fd_sc_hd__o211ai_1 A1 A2 B1 C1 VGND VNB VPB VPWR Y
.ends

* Black-box entry subcircuit for sky130_fd_sc_hd__a31oi_1 abstract view
.subckt sky130_fd_sc_hd__a31oi_1 A1 A2 A3 B1 VGND VNB VPB VPWR Y
.ends

* Black-box entry subcircuit for sky130_fd_sc_hd__a21o_2 abstract view
.subckt sky130_fd_sc_hd__a21o_2 A1 A2 B1 VGND VNB VPB VPWR X
.ends

* Black-box entry subcircuit for sky130_fd_sc_hd__o22ai_1 abstract view
.subckt sky130_fd_sc_hd__o22ai_1 A1 A2 B1 B2 VGND VNB VPB VPWR Y
.ends

* Black-box entry subcircuit for sky130_fd_sc_hd__a21boi_2 abstract view
.subckt sky130_fd_sc_hd__a21boi_2 A1 A2 B1_N VGND VNB VPB VPWR Y
.ends

* Black-box entry subcircuit for sky130_fd_sc_hd__a22oi_2 abstract view
.subckt sky130_fd_sc_hd__a22oi_2 A1 A2 B1 B2 VGND VNB VPB VPWR Y
.ends

* Black-box entry subcircuit for sky130_fd_sc_hd__clkinv_1 abstract view
.subckt sky130_fd_sc_hd__clkinv_1 A VGND VNB VPB VPWR Y
.ends

* Black-box entry subcircuit for sky130_fd_sc_hd__or3_2 abstract view
.subckt sky130_fd_sc_hd__or3_2 A B C VGND VNB VPB VPWR X
.ends

* Black-box entry subcircuit for sky130_fd_sc_hd__and3_2 abstract view
.subckt sky130_fd_sc_hd__and3_2 A B C VGND VNB VPB VPWR X
.ends

* Black-box entry subcircuit for sky130_fd_sc_hd__o221ai_1 abstract view
.subckt sky130_fd_sc_hd__o221ai_1 A1 A2 B1 B2 C1 VGND VNB VPB VPWR Y
.ends

* Black-box entry subcircuit for sky130_fd_sc_hd__a31oi_4 abstract view
.subckt sky130_fd_sc_hd__a31oi_4 A1 A2 A3 B1 VGND VNB VPB VPWR Y
.ends

* Black-box entry subcircuit for sky130_fd_sc_hd__o2111a_1 abstract view
.subckt sky130_fd_sc_hd__o2111a_1 A1 A2 B1 C1 D1 VGND VNB VPB VPWR X
.ends

* Black-box entry subcircuit for sky130_fd_sc_hd__or3b_2 abstract view
.subckt sky130_fd_sc_hd__or3b_2 A B C_N VGND VNB VPB VPWR X
.ends

* Black-box entry subcircuit for sky130_fd_sc_hd__o31a_2 abstract view
.subckt sky130_fd_sc_hd__o31a_2 A1 A2 A3 B1 VGND VNB VPB VPWR X
.ends

* Black-box entry subcircuit for sky130_fd_sc_hd__and3b_2 abstract view
.subckt sky130_fd_sc_hd__and3b_2 A_N B C VGND VNB VPB VPWR X
.ends

* Black-box entry subcircuit for sky130_fd_sc_hd__a31o_2 abstract view
.subckt sky130_fd_sc_hd__a31o_2 A1 A2 A3 B1 VGND VNB VPB VPWR X
.ends

* Black-box entry subcircuit for sky130_fd_sc_hd__nand4_1 abstract view
.subckt sky130_fd_sc_hd__nand4_1 A B C D VGND VNB VPB VPWR Y
.ends

* Black-box entry subcircuit for sky130_fd_sc_hd__dfstp_1 abstract view
.subckt sky130_fd_sc_hd__dfstp_1 CLK D SET_B VGND VNB VPB VPWR Q
.ends

* Black-box entry subcircuit for sky130_fd_sc_hd__a22o_4 abstract view
.subckt sky130_fd_sc_hd__a22o_4 A1 A2 B1 B2 VGND VNB VPB VPWR X
.ends

* Black-box entry subcircuit for sky130_fd_sc_hd__or4b_2 abstract view
.subckt sky130_fd_sc_hd__or4b_2 A B C D_N VGND VNB VPB VPWR X
.ends

* Black-box entry subcircuit for sky130_fd_sc_hd__nor3b_1 abstract view
.subckt sky130_fd_sc_hd__nor3b_1 A B C_N VGND VNB VPB VPWR Y
.ends

* Black-box entry subcircuit for sky130_fd_sc_hd__a311o_2 abstract view
.subckt sky130_fd_sc_hd__a311o_2 A1 A2 A3 B1 C1 VGND VNB VPB VPWR X
.ends

* Black-box entry subcircuit for sky130_fd_sc_hd__o22ai_4 abstract view
.subckt sky130_fd_sc_hd__o22ai_4 A1 A2 B1 B2 VGND VNB VPB VPWR Y
.ends

* Black-box entry subcircuit for sky130_fd_sc_hd__or4_4 abstract view
.subckt sky130_fd_sc_hd__or4_4 A B C D VGND VNB VPB VPWR X
.ends

* Black-box entry subcircuit for sky130_fd_sc_hd__clkinv_2 abstract view
.subckt sky130_fd_sc_hd__clkinv_2 A VGND VNB VPB VPWR Y
.ends

* Black-box entry subcircuit for sky130_fd_sc_hd__buf_1 abstract view
.subckt sky130_fd_sc_hd__buf_1 A VGND VNB VPB VPWR X
.ends

* Black-box entry subcircuit for sky130_fd_sc_hd__o21bai_4 abstract view
.subckt sky130_fd_sc_hd__o21bai_4 A1 A2 B1_N VGND VNB VPB VPWR Y
.ends

* Black-box entry subcircuit for sky130_fd_sc_hd__a211o_2 abstract view
.subckt sky130_fd_sc_hd__a211o_2 A1 A2 B1 C1 VGND VNB VPB VPWR X
.ends

* Black-box entry subcircuit for sky130_fd_sc_hd__clkinv_4 abstract view
.subckt sky130_fd_sc_hd__clkinv_4 A VGND VNB VPB VPWR Y
.ends

* Black-box entry subcircuit for sky130_fd_sc_hd__a2bb2o_2 abstract view
.subckt sky130_fd_sc_hd__a2bb2o_2 A1_N A2_N B1 B2 VGND VNB VPB VPWR X
.ends

* Black-box entry subcircuit for sky130_fd_sc_hd__and4_4 abstract view
.subckt sky130_fd_sc_hd__and4_4 A B C D VGND VNB VPB VPWR X
.ends

* Black-box entry subcircuit for sky130_fd_sc_hd__or3b_4 abstract view
.subckt sky130_fd_sc_hd__or3b_4 A B C_N VGND VNB VPB VPWR X
.ends

* Black-box entry subcircuit for sky130_fd_sc_hd__a311oi_4 abstract view
.subckt sky130_fd_sc_hd__a311oi_4 A1 A2 A3 B1 C1 VGND VNB VPB VPWR Y
.ends

* Black-box entry subcircuit for sky130_fd_sc_hd__a2111oi_1 abstract view
.subckt sky130_fd_sc_hd__a2111oi_1 A1 A2 B1 C1 D1 VGND VNB VPB VPWR Y
.ends

* Black-box entry subcircuit for sky130_fd_sc_hd__nor3_2 abstract view
.subckt sky130_fd_sc_hd__nor3_2 A B C VGND VNB VPB VPWR Y
.ends

* Black-box entry subcircuit for sky130_fd_sc_hd__a31oi_2 abstract view
.subckt sky130_fd_sc_hd__a31oi_2 A1 A2 A3 B1 VGND VNB VPB VPWR Y
.ends

* Black-box entry subcircuit for sky130_fd_sc_hd__a32oi_4 abstract view
.subckt sky130_fd_sc_hd__a32oi_4 A1 A2 A3 B1 B2 VGND VNB VPB VPWR Y
.ends

* Black-box entry subcircuit for sky130_fd_sc_hd__and2b_2 abstract view
.subckt sky130_fd_sc_hd__and2b_2 A_N B VGND VNB VPB VPWR X
.ends

* Black-box entry subcircuit for sky130_fd_sc_hd__nor3b_2 abstract view
.subckt sky130_fd_sc_hd__nor3b_2 A B C_N VGND VNB VPB VPWR Y
.ends

* Black-box entry subcircuit for sky130_fd_sc_hd__or4bb_2 abstract view
.subckt sky130_fd_sc_hd__or4bb_2 A B C_N D_N VGND VNB VPB VPWR X
.ends

* Black-box entry subcircuit for sky130_fd_sc_hd__a221oi_4 abstract view
.subckt sky130_fd_sc_hd__a221oi_4 A1 A2 B1 B2 C1 VGND VNB VPB VPWR Y
.ends

* Black-box entry subcircuit for sky130_fd_sc_hd__a21bo_2 abstract view
.subckt sky130_fd_sc_hd__a21bo_2 A1 A2 B1_N VGND VNB VPB VPWR X
.ends

* Black-box entry subcircuit for sky130_fd_sc_hd__nand3b_1 abstract view
.subckt sky130_fd_sc_hd__nand3b_1 A_N B C VGND VNB VPB VPWR Y
.ends

* Black-box entry subcircuit for sky130_fd_sc_hd__o221ai_2 abstract view
.subckt sky130_fd_sc_hd__o221ai_2 A1 A2 B1 B2 C1 VGND VNB VPB VPWR Y
.ends

* Black-box entry subcircuit for sky130_fd_sc_hd__a41oi_2 abstract view
.subckt sky130_fd_sc_hd__a41oi_2 A1 A2 A3 A4 B1 VGND VNB VPB VPWR Y
.ends

* Black-box entry subcircuit for sky130_fd_sc_hd__o221a_2 abstract view
.subckt sky130_fd_sc_hd__o221a_2 A1 A2 B1 B2 C1 VGND VNB VPB VPWR X
.ends

* Black-box entry subcircuit for sky130_fd_sc_hd__o211ai_4 abstract view
.subckt sky130_fd_sc_hd__o211ai_4 A1 A2 B1 C1 VGND VNB VPB VPWR Y
.ends

.subckt team_07 ACK_I ADR_O[0] ADR_O[10] ADR_O[11] ADR_O[12] ADR_O[13] ADR_O[14] ADR_O[15]
+ ADR_O[16] ADR_O[17] ADR_O[18] ADR_O[19] ADR_O[1] ADR_O[20] ADR_O[21] ADR_O[22] ADR_O[23]
+ ADR_O[24] ADR_O[25] ADR_O[26] ADR_O[27] ADR_O[28] ADR_O[29] ADR_O[2] ADR_O[30] ADR_O[31]
+ ADR_O[3] ADR_O[4] ADR_O[5] ADR_O[6] ADR_O[7] ADR_O[8] ADR_O[9] CYC_O DAT_I[0] DAT_I[10]
+ DAT_I[11] DAT_I[12] DAT_I[13] DAT_I[14] DAT_I[15] DAT_I[16] DAT_I[17] DAT_I[18]
+ DAT_I[19] DAT_I[1] DAT_I[20] DAT_I[21] DAT_I[22] DAT_I[23] DAT_I[24] DAT_I[25] DAT_I[26]
+ DAT_I[27] DAT_I[28] DAT_I[29] DAT_I[2] DAT_I[30] DAT_I[31] DAT_I[3] DAT_I[4] DAT_I[5]
+ DAT_I[6] DAT_I[7] DAT_I[8] DAT_I[9] DAT_O[0] DAT_O[10] DAT_O[11] DAT_O[12] DAT_O[13]
+ DAT_O[14] DAT_O[15] DAT_O[16] DAT_O[17] DAT_O[18] DAT_O[19] DAT_O[1] DAT_O[20] DAT_O[21]
+ DAT_O[22] DAT_O[23] DAT_O[24] DAT_O[25] DAT_O[26] DAT_O[27] DAT_O[28] DAT_O[29]
+ DAT_O[2] DAT_O[30] DAT_O[31] DAT_O[3] DAT_O[4] DAT_O[5] DAT_O[6] DAT_O[7] DAT_O[8]
+ DAT_O[9] SEL_O[0] SEL_O[1] SEL_O[2] SEL_O[3] STB_O WE_O clk en gpio_in[0] gpio_in[10]
+ gpio_in[11] gpio_in[12] gpio_in[13] gpio_in[14] gpio_in[15] gpio_in[16] gpio_in[17]
+ gpio_in[18] gpio_in[19] gpio_in[1] gpio_in[20] gpio_in[21] gpio_in[22] gpio_in[23]
+ gpio_in[24] gpio_in[25] gpio_in[26] gpio_in[27] gpio_in[28] gpio_in[29] gpio_in[2]
+ gpio_in[30] gpio_in[31] gpio_in[32] gpio_in[33] gpio_in[3] gpio_in[4] gpio_in[5]
+ gpio_in[6] gpio_in[7] gpio_in[8] gpio_in[9] gpio_oeb[0] gpio_oeb[10] gpio_oeb[11]
+ gpio_oeb[12] gpio_oeb[13] gpio_oeb[14] gpio_oeb[15] gpio_oeb[16] gpio_oeb[17] gpio_oeb[18]
+ gpio_oeb[19] gpio_oeb[1] gpio_oeb[20] gpio_oeb[21] gpio_oeb[22] gpio_oeb[23] gpio_oeb[24]
+ gpio_oeb[25] gpio_oeb[26] gpio_oeb[27] gpio_oeb[28] gpio_oeb[29] gpio_oeb[2] gpio_oeb[30]
+ gpio_oeb[31] gpio_oeb[32] gpio_oeb[33] gpio_oeb[3] gpio_oeb[4] gpio_oeb[5] gpio_oeb[6]
+ gpio_oeb[7] gpio_oeb[8] gpio_oeb[9] gpio_out[0] gpio_out[10] gpio_out[11] gpio_out[12]
+ gpio_out[13] gpio_out[14] gpio_out[15] gpio_out[16] gpio_out[17] gpio_out[18] gpio_out[19]
+ gpio_out[1] gpio_out[20] gpio_out[21] gpio_out[22] gpio_out[23] gpio_out[24] gpio_out[25]
+ gpio_out[26] gpio_out[27] gpio_out[28] gpio_out[29] gpio_out[2] gpio_out[30] gpio_out[31]
+ gpio_out[32] gpio_out[33] gpio_out[3] gpio_out[4] gpio_out[5] gpio_out[6] gpio_out[7]
+ gpio_out[8] gpio_out[9] nrst vccd1 vssd1
X_05903_ top0.CPU.register.registers\[770\] top0.CPU.register.registers\[802\] top0.CPU.register.registers\[834\]
+ top0.CPU.register.registers\[866\] net831 net796 vssd1 vssd1 vccd1 vccd1 _02560_
+ sky130_fd_sc_hd__mux4_1
XANTENNA__08731__B1 net296 vssd1 vssd1 vccd1 vccd1 sky130_fd_sc_hd__diode_2
X_06883_ net860 _03531_ _03539_ vssd1 vssd1 vccd1 vccd1 _03540_ sky130_fd_sc_hd__a21oi_4
X_09671_ net768 _05186_ net651 vssd1 vssd1 vccd1 vccd1 _02179_ sky130_fd_sc_hd__mux2_1
XTAP_TAPCELL_ROW_87_1605 vssd1 vccd1 sky130_fd_sc_hd__tapvpwrvgnd_1
XANTENNA__06968__S0 net920 vssd1 vssd1 vccd1 vccd1 sky130_fd_sc_hd__diode_2
X_05834_ _02489_ _02490_ net729 vssd1 vssd1 vccd1 vccd1 _02491_ sky130_fd_sc_hd__mux2_1
X_08622_ net714 net214 net310 net330 net2495 vssd1 vssd1 vccd1 vccd1 _01630_ sky130_fd_sc_hd__a32o_1
XFILLER_55_737 vccd1 vssd1 vccd1 vssd1 sky130_ef_sc_hd__decap_40_12
X_05765_ _02384_ net632 net626 vssd1 vssd1 vccd1 vccd1 _02422_ sky130_fd_sc_hd__nand3_2
XFILLER_70_718 vssd1 vssd1 vccd1 vccd1 sky130_fd_sc_hd__fill_1
X_08553_ net153 net678 net397 net362 net2272 vssd1 vssd1 vccd1 vccd1 _01690_ sky130_fd_sc_hd__a32o_1
XANTENNA__07332__B _03985_ vssd1 vssd1 vccd1 vccd1 sky130_fd_sc_hd__diode_2
X_07504_ _02769_ net527 vssd1 vssd1 vccd1 vccd1 _04161_ sky130_fd_sc_hd__xnor2_1
XANTENNA_fanout162_A net163 vssd1 vssd1 vccd1 vccd1 sky130_fd_sc_hd__diode_2
X_08484_ net160 net614 net386 net369 net2659 vssd1 vssd1 vccd1 vccd1 _01756_ sky130_fd_sc_hd__a32o_1
XANTENNA__05848__A1 net778 vssd1 vssd1 vccd1 vccd1 sky130_fd_sc_hd__diode_2
X_05696_ top0.MMIO.WBData_i\[18\] vssd1 vssd1 vccd1 vccd1 _02354_ sky130_fd_sc_hd__inv_2
XANTENNA__07837__A2 net641 vssd1 vssd1 vccd1 vccd1 sky130_fd_sc_hd__diode_2
XTAP_TAPCELL_ROW_46_990 vssd1 vccd1 sky130_fd_sc_hd__tapvpwrvgnd_1
X_07435_ net469 _03403_ _03820_ vssd1 vssd1 vccd1 vccd1 _04092_ sky130_fd_sc_hd__a21bo_1
X_11299__951 clknet_leaf_98_clk vssd1 vssd1 vccd1 vccd1 net2148 sky130_fd_sc_hd__inv_2
XANTENNA_fanout427_A net428 vssd1 vssd1 vccd1 vccd1 sky130_fd_sc_hd__diode_2
XANTENNA__05943__S1 net789 vssd1 vssd1 vccd1 vccd1 sky130_fd_sc_hd__diode_2
XFILLER_22_155 vssd1 vssd1 vccd1 vccd1 sky130_fd_sc_hd__fill_1
X_07366_ _03918_ _03922_ net456 vssd1 vssd1 vccd1 vccd1 _04023_ sky130_fd_sc_hd__mux2_1
XANTENNA__08798__B1 net288 vssd1 vssd1 vccd1 vccd1 sky130_fd_sc_hd__diode_2
X_06317_ top0.CPU.register.registers\[412\] top0.CPU.register.registers\[444\] top0.CPU.register.registers\[476\]
+ top0.CPU.register.registers\[508\] net832 net797 vssd1 vssd1 vccd1 vccd1 _02974_
+ sky130_fd_sc_hd__mux4_1
X_09105_ top0.CPU.register.registers\[88\] net568 vssd1 vssd1 vccd1 vccd1 _04827_
+ sky130_fd_sc_hd__or2_1
X_07297_ net489 _03953_ _03755_ vssd1 vssd1 vccd1 vccd1 _03954_ sky130_fd_sc_hd__a21o_1
XTAP_TAPCELL_ROW_98_1767 vssd1 vccd1 sky130_fd_sc_hd__tapvpwrvgnd_1
X_09036_ net217 net613 _04805_ net351 net3216 vssd1 vssd1 vccd1 vccd1 _01282_ sky130_fd_sc_hd__a32o_1
X_06248_ _02901_ _02904_ net780 vssd1 vssd1 vccd1 vccd1 _02905_ sky130_fd_sc_hd__mux2_1
XANTENNA__08163__B net617 vssd1 vssd1 vccd1 vccd1 sky130_fd_sc_hd__diode_2
XPHY_EDGE_ROW_107_Left_246 vssd1 vssd1 vccd1 vccd1 sky130_fd_sc_hd__decap_3
XANTENNA_fanout796_A net799 vssd1 vssd1 vccd1 vccd1 sky130_fd_sc_hd__diode_2
XFILLER_116_260 vssd1 vssd1 vccd1 vccd1 sky130_fd_sc_hd__fill_1
Xhold362 top0.CPU.register.registers\[872\] vssd1 vssd1 vccd1 vccd1 net2584 sky130_fd_sc_hd__dlygate4sd3_1