* NGSPICE file created from team_05.ext - technology: sky130A

* Black-box entry subcircuit for sky130_fd_sc_hd__a31o_1 abstract view
.subckt sky130_fd_sc_hd__a31o_1 A1 A2 A3 B1 VGND VNB VPB VPWR X
.ends

* Black-box entry subcircuit for sky130_fd_sc_hd__and2_1 abstract view
.subckt sky130_fd_sc_hd__and2_1 A B VGND VNB VPB VPWR X
.ends

* Black-box entry subcircuit for sky130_fd_sc_hd__o22a_1 abstract view
.subckt sky130_fd_sc_hd__o22a_1 A1 A2 B1 B2 VGND VNB VPB VPWR X
.ends

* Black-box entry subcircuit for sky130_fd_sc_hd__a21o_1 abstract view
.subckt sky130_fd_sc_hd__a21o_1 A1 A2 B1 VGND VNB VPB VPWR X
.ends

* Black-box entry subcircuit for sky130_fd_sc_hd__a211o_1 abstract view
.subckt sky130_fd_sc_hd__a211o_1 A1 A2 B1 C1 VGND VNB VPB VPWR X
.ends

* Black-box entry subcircuit for sky130_fd_sc_hd__diode_2 abstract view
.subckt sky130_fd_sc_hd__diode_2 DIODE VGND VNB VPB VPWR
.ends

* Black-box entry subcircuit for sky130_fd_sc_hd__mux2_1 abstract view
.subckt sky130_fd_sc_hd__mux2_1 A0 A1 S VGND VNB VPB VPWR X
.ends

* Black-box entry subcircuit for sky130_fd_sc_hd__or2_1 abstract view
.subckt sky130_fd_sc_hd__or2_1 A B VGND VNB VPB VPWR X
.ends

* Black-box entry subcircuit for sky130_fd_sc_hd__tapvpwrvgnd_1 abstract view
.subckt sky130_fd_sc_hd__tapvpwrvgnd_1 VGND VPWR
.ends

* Black-box entry subcircuit for sky130_fd_sc_hd__mux4_1 abstract view
.subckt sky130_fd_sc_hd__mux4_1 A0 A1 A2 A3 S0 S1 VGND VNB VPB VPWR X
.ends

* Black-box entry subcircuit for sky130_fd_sc_hd__a22o_1 abstract view
.subckt sky130_fd_sc_hd__a22o_1 A1 A2 B1 B2 VGND VNB VPB VPWR X
.ends

* Black-box entry subcircuit for sky130_fd_sc_hd__or3b_1 abstract view
.subckt sky130_fd_sc_hd__or3b_1 A B C_N VGND VNB VPB VPWR X
.ends

* Black-box entry subcircuit for sky130_fd_sc_hd__nand2_1 abstract view
.subckt sky130_fd_sc_hd__nand2_1 A B VGND VNB VPB VPWR Y
.ends

* Black-box entry subcircuit for sky130_fd_sc_hd__and3_1 abstract view
.subckt sky130_fd_sc_hd__and3_1 A B C VGND VNB VPB VPWR X
.ends

* Black-box entry subcircuit for sky130_ef_sc_hd__decap_40_12 abstract view
.subckt sky130_ef_sc_hd__decap_40_12 VPWR VGND VPB VNB
.ends

* Black-box entry subcircuit for sky130_fd_sc_hd__and4_1 abstract view
.subckt sky130_fd_sc_hd__and4_1 A B C D VGND VNB VPB VPWR X
.ends

* Black-box entry subcircuit for sky130_fd_sc_hd__nor2_1 abstract view
.subckt sky130_fd_sc_hd__nor2_1 A B VGND VNB VPB VPWR Y
.ends

* Black-box entry subcircuit for sky130_fd_sc_hd__fill_1 abstract view
.subckt sky130_fd_sc_hd__fill_1 VGND VNB VPB VPWR
.ends

* Black-box entry subcircuit for sky130_fd_sc_hd__dlygate4sd3_1 abstract view
.subckt sky130_fd_sc_hd__dlygate4sd3_1 A VGND VNB VPB VPWR X
.ends

* Black-box entry subcircuit for sky130_fd_sc_hd__clkbuf_2 abstract view
.subckt sky130_fd_sc_hd__clkbuf_2 A VGND VNB VPB VPWR X
.ends

* Black-box entry subcircuit for sky130_fd_sc_hd__buf_1 abstract view
.subckt sky130_fd_sc_hd__buf_1 A VGND VNB VPB VPWR X
.ends

* Black-box entry subcircuit for sky130_fd_sc_hd__dfrtp_4 abstract view
.subckt sky130_fd_sc_hd__dfrtp_4 CLK D RESET_B VGND VNB VPB VPWR Q
.ends

* Black-box entry subcircuit for sky130_fd_sc_hd__fill_4 abstract view
.subckt sky130_fd_sc_hd__fill_4 VGND VNB VPB VPWR
.ends

* Black-box entry subcircuit for sky130_fd_sc_hd__dfrtp_1 abstract view
.subckt sky130_fd_sc_hd__dfrtp_1 CLK D RESET_B VGND VNB VPB VPWR Q
.ends

* Black-box entry subcircuit for sky130_fd_sc_hd__fill_2 abstract view
.subckt sky130_fd_sc_hd__fill_2 VGND VNB VPB VPWR
.ends

* Black-box entry subcircuit for sky130_fd_sc_hd__dfrtp_2 abstract view
.subckt sky130_fd_sc_hd__dfrtp_2 CLK D RESET_B VGND VNB VPB VPWR Q
.ends

* Black-box entry subcircuit for sky130_fd_sc_hd__and3_2 abstract view
.subckt sky130_fd_sc_hd__and3_2 A B C VGND VNB VPB VPWR X
.ends

* Black-box entry subcircuit for sky130_fd_sc_hd__dlymetal6s2s_1 abstract view
.subckt sky130_fd_sc_hd__dlymetal6s2s_1 A VGND VNB VPB VPWR X
.ends

* Black-box entry subcircuit for sky130_fd_sc_hd__buf_4 abstract view
.subckt sky130_fd_sc_hd__buf_4 A VGND VNB VPB VPWR X
.ends

* Black-box entry subcircuit for sky130_fd_sc_hd__clkbuf_4 abstract view
.subckt sky130_fd_sc_hd__clkbuf_4 A VGND VNB VPB VPWR X
.ends

* Black-box entry subcircuit for sky130_fd_sc_hd__o21ba_1 abstract view
.subckt sky130_fd_sc_hd__o21ba_1 A1 A2 B1_N VGND VNB VPB VPWR X
.ends

* Black-box entry subcircuit for sky130_fd_sc_hd__or3_1 abstract view
.subckt sky130_fd_sc_hd__or3_1 A B C VGND VNB VPB VPWR X
.ends

* Black-box entry subcircuit for sky130_fd_sc_hd__a21oi_1 abstract view
.subckt sky130_fd_sc_hd__a21oi_1 A1 A2 B1 VGND VNB VPB VPWR Y
.ends

* Black-box entry subcircuit for sky130_fd_sc_hd__nor2_2 abstract view
.subckt sky130_fd_sc_hd__nor2_2 A B VGND VNB VPB VPWR Y
.ends

* Black-box entry subcircuit for sky130_fd_sc_hd__a221o_1 abstract view
.subckt sky130_fd_sc_hd__a221o_1 A1 A2 B1 B2 C1 VGND VNB VPB VPWR X
.ends

* Black-box entry subcircuit for sky130_fd_sc_hd__conb_1 abstract view
.subckt sky130_fd_sc_hd__conb_1 VGND VNB VPB VPWR HI LO
.ends

* Black-box entry subcircuit for sky130_fd_sc_hd__nor3_1 abstract view
.subckt sky130_fd_sc_hd__nor3_1 A B C VGND VNB VPB VPWR Y
.ends

* Black-box entry subcircuit for sky130_fd_sc_hd__o21a_1 abstract view
.subckt sky130_fd_sc_hd__o21a_1 A1 A2 B1 VGND VNB VPB VPWR X
.ends

* Black-box entry subcircuit for sky130_fd_sc_hd__xnor2_1 abstract view
.subckt sky130_fd_sc_hd__xnor2_1 A B VGND VNB VPB VPWR Y
.ends

* Black-box entry subcircuit for sky130_fd_sc_hd__clkbuf_8 abstract view
.subckt sky130_fd_sc_hd__clkbuf_8 A VGND VNB VPB VPWR X
.ends

* Black-box entry subcircuit for sky130_fd_sc_hd__inv_2 abstract view
.subckt sky130_fd_sc_hd__inv_2 A VGND VNB VPB VPWR Y
.ends

* Black-box entry subcircuit for sky130_fd_sc_hd__a31oi_1 abstract view
.subckt sky130_fd_sc_hd__a31oi_1 A1 A2 A3 B1 VGND VNB VPB VPWR Y
.ends

* Black-box entry subcircuit for sky130_fd_sc_hd__dfstp_1 abstract view
.subckt sky130_fd_sc_hd__dfstp_1 CLK D SET_B VGND VNB VPB VPWR Q
.ends

* Black-box entry subcircuit for sky130_fd_sc_hd__decap_3 abstract view
.subckt sky130_fd_sc_hd__decap_3 VGND VNB VPB VPWR
.ends

* Black-box entry subcircuit for sky130_fd_sc_hd__o211a_1 abstract view
.subckt sky130_fd_sc_hd__o211a_1 A1 A2 B1 C1 VGND VNB VPB VPWR X
.ends

* Black-box entry subcircuit for sky130_fd_sc_hd__a21oi_4 abstract view
.subckt sky130_fd_sc_hd__a21oi_4 A1 A2 B1 VGND VNB VPB VPWR Y
.ends

* Black-box entry subcircuit for sky130_fd_sc_hd__or3_2 abstract view
.subckt sky130_fd_sc_hd__or3_2 A B C VGND VNB VPB VPWR X
.ends

* Black-box entry subcircuit for sky130_fd_sc_hd__o21ai_1 abstract view
.subckt sky130_fd_sc_hd__o21ai_1 A1 A2 B1 VGND VNB VPB VPWR Y
.ends

* Black-box entry subcircuit for sky130_fd_sc_hd__fill_8 abstract view
.subckt sky130_fd_sc_hd__fill_8 VGND VNB VPB VPWR
.ends

* Black-box entry subcircuit for sky130_fd_sc_hd__a2111o_1 abstract view
.subckt sky130_fd_sc_hd__a2111o_1 A1 A2 B1 C1 D1 VGND VNB VPB VPWR X
.ends

* Black-box entry subcircuit for sky130_fd_sc_hd__o221a_1 abstract view
.subckt sky130_fd_sc_hd__o221a_1 A1 A2 B1 B2 C1 VGND VNB VPB VPWR X
.ends

* Black-box entry subcircuit for sky130_fd_sc_hd__a32o_1 abstract view
.subckt sky130_fd_sc_hd__a32o_1 A1 A2 A3 B1 B2 VGND VNB VPB VPWR X
.ends

* Black-box entry subcircuit for sky130_fd_sc_hd__dfstp_2 abstract view
.subckt sky130_fd_sc_hd__dfstp_2 CLK D SET_B VGND VNB VPB VPWR Q
.ends

* Black-box entry subcircuit for sky130_fd_sc_hd__buf_2 abstract view
.subckt sky130_fd_sc_hd__buf_2 A VGND VNB VPB VPWR X
.ends

* Black-box entry subcircuit for sky130_fd_sc_hd__dfxtp_1 abstract view
.subckt sky130_fd_sc_hd__dfxtp_1 CLK D VGND VNB VPB VPWR Q
.ends

* Black-box entry subcircuit for sky130_fd_sc_hd__a21bo_1 abstract view
.subckt sky130_fd_sc_hd__a21bo_1 A1 A2 B1_N VGND VNB VPB VPWR X
.ends

* Black-box entry subcircuit for sky130_fd_sc_hd__a2bb2o_1 abstract view
.subckt sky130_fd_sc_hd__a2bb2o_1 A1_N A2_N B1 B2 VGND VNB VPB VPWR X
.ends

* Black-box entry subcircuit for sky130_fd_sc_hd__and3b_1 abstract view
.subckt sky130_fd_sc_hd__and3b_1 A_N B C VGND VNB VPB VPWR X
.ends

* Black-box entry subcircuit for sky130_fd_sc_hd__a221o_2 abstract view
.subckt sky130_fd_sc_hd__a221o_2 A1 A2 B1 B2 C1 VGND VNB VPB VPWR X
.ends

* Black-box entry subcircuit for sky130_fd_sc_hd__or4_1 abstract view
.subckt sky130_fd_sc_hd__or4_1 A B C D VGND VNB VPB VPWR X
.ends

* Black-box entry subcircuit for sky130_fd_sc_hd__a21boi_2 abstract view
.subckt sky130_fd_sc_hd__a21boi_2 A1 A2 B1_N VGND VNB VPB VPWR Y
.ends

* Black-box entry subcircuit for sky130_fd_sc_hd__xor2_1 abstract view
.subckt sky130_fd_sc_hd__xor2_1 A B VGND VNB VPB VPWR X
.ends

* Black-box entry subcircuit for sky130_fd_sc_hd__clkinv_2 abstract view
.subckt sky130_fd_sc_hd__clkinv_2 A VGND VNB VPB VPWR Y
.ends

* Black-box entry subcircuit for sky130_fd_sc_hd__nor4_2 abstract view
.subckt sky130_fd_sc_hd__nor4_2 A B C D VGND VNB VPB VPWR Y
.ends

* Black-box entry subcircuit for sky130_fd_sc_hd__or2_2 abstract view
.subckt sky130_fd_sc_hd__or2_2 A B VGND VNB VPB VPWR X
.ends

* Black-box entry subcircuit for sky130_fd_sc_hd__o31a_1 abstract view
.subckt sky130_fd_sc_hd__o31a_1 A1 A2 A3 B1 VGND VNB VPB VPWR X
.ends

* Black-box entry subcircuit for sky130_fd_sc_hd__clkinv_8 abstract view
.subckt sky130_fd_sc_hd__clkinv_8 A VGND VNB VPB VPWR Y
.ends

* Black-box entry subcircuit for sky130_fd_sc_hd__or4bb_1 abstract view
.subckt sky130_fd_sc_hd__or4bb_1 A B C_N D_N VGND VNB VPB VPWR X
.ends

* Black-box entry subcircuit for sky130_fd_sc_hd__a2111oi_1 abstract view
.subckt sky130_fd_sc_hd__a2111oi_1 A1 A2 B1 C1 D1 VGND VNB VPB VPWR Y
.ends

* Black-box entry subcircuit for sky130_fd_sc_hd__a311o_2 abstract view
.subckt sky130_fd_sc_hd__a311o_2 A1 A2 A3 B1 C1 VGND VNB VPB VPWR X
.ends

* Black-box entry subcircuit for sky130_fd_sc_hd__nor4_1 abstract view
.subckt sky130_fd_sc_hd__nor4_1 A B C D VGND VNB VPB VPWR Y
.ends

* Black-box entry subcircuit for sky130_fd_sc_hd__o2111a_1 abstract view
.subckt sky130_fd_sc_hd__o2111a_1 A1 A2 B1 C1 D1 VGND VNB VPB VPWR X
.ends

* Black-box entry subcircuit for sky130_fd_sc_hd__and2b_1 abstract view
.subckt sky130_fd_sc_hd__and2b_1 A_N B VGND VNB VPB VPWR X
.ends

* Black-box entry subcircuit for sky130_fd_sc_hd__and4bb_1 abstract view
.subckt sky130_fd_sc_hd__and4bb_1 A_N B_N C D VGND VNB VPB VPWR X
.ends

* Black-box entry subcircuit for sky130_fd_sc_hd__or4b_1 abstract view
.subckt sky130_fd_sc_hd__or4b_1 A B C D_N VGND VNB VPB VPWR X
.ends

* Black-box entry subcircuit for sky130_fd_sc_hd__o2111ai_2 abstract view
.subckt sky130_fd_sc_hd__o2111ai_2 A1 A2 B1 C1 D1 VGND VNB VPB VPWR Y
.ends

* Black-box entry subcircuit for sky130_fd_sc_hd__bufinv_16 abstract view
.subckt sky130_fd_sc_hd__bufinv_16 A VGND VNB VPB VPWR Y
.ends

* Black-box entry subcircuit for sky130_fd_sc_hd__inv_6 abstract view
.subckt sky130_fd_sc_hd__inv_6 A VGND VNB VPB VPWR Y
.ends

* Black-box entry subcircuit for sky130_fd_sc_hd__inv_4 abstract view
.subckt sky130_fd_sc_hd__inv_4 A VGND VNB VPB VPWR Y
.ends

* Black-box entry subcircuit for sky130_fd_sc_hd__a221oi_1 abstract view
.subckt sky130_fd_sc_hd__a221oi_1 A1 A2 B1 B2 C1 VGND VNB VPB VPWR Y
.ends

* Black-box entry subcircuit for sky130_fd_sc_hd__o211a_4 abstract view
.subckt sky130_fd_sc_hd__o211a_4 A1 A2 B1 C1 VGND VNB VPB VPWR X
.ends

* Black-box entry subcircuit for sky130_fd_sc_hd__and4b_1 abstract view
.subckt sky130_fd_sc_hd__and4b_1 A_N B C D VGND VNB VPB VPWR X
.ends

* Black-box entry subcircuit for sky130_fd_sc_hd__clkbuf_1 abstract view
.subckt sky130_fd_sc_hd__clkbuf_1 A VGND VNB VPB VPWR X
.ends

* Black-box entry subcircuit for sky130_fd_sc_hd__nor3_2 abstract view
.subckt sky130_fd_sc_hd__nor3_2 A B C VGND VNB VPB VPWR Y
.ends

* Black-box entry subcircuit for sky130_fd_sc_hd__nand2b_1 abstract view
.subckt sky130_fd_sc_hd__nand2b_1 A_N B VGND VNB VPB VPWR Y
.ends

* Black-box entry subcircuit for sky130_fd_sc_hd__a41o_1 abstract view
.subckt sky130_fd_sc_hd__a41o_1 A1 A2 A3 A4 B1 VGND VNB VPB VPWR X
.ends

* Black-box entry subcircuit for sky130_fd_sc_hd__nand3_1 abstract view
.subckt sky130_fd_sc_hd__nand3_1 A B C VGND VNB VPB VPWR Y
.ends

* Black-box entry subcircuit for sky130_fd_sc_hd__clkinv_1 abstract view
.subckt sky130_fd_sc_hd__clkinv_1 A VGND VNB VPB VPWR Y
.ends

* Black-box entry subcircuit for sky130_fd_sc_hd__or3b_4 abstract view
.subckt sky130_fd_sc_hd__or3b_4 A B C_N VGND VNB VPB VPWR X
.ends

* Black-box entry subcircuit for sky130_fd_sc_hd__o31ai_1 abstract view
.subckt sky130_fd_sc_hd__o31ai_1 A1 A2 A3 B1 VGND VNB VPB VPWR Y
.ends

* Black-box entry subcircuit for sky130_fd_sc_hd__a21oi_2 abstract view
.subckt sky130_fd_sc_hd__a21oi_2 A1 A2 B1 VGND VNB VPB VPWR Y
.ends

* Black-box entry subcircuit for sky130_fd_sc_hd__and4_2 abstract view
.subckt sky130_fd_sc_hd__and4_2 A B C D VGND VNB VPB VPWR X
.ends

* Black-box entry subcircuit for sky130_fd_sc_hd__o2bb2a_1 abstract view
.subckt sky130_fd_sc_hd__o2bb2a_1 A1_N A2_N B1 B2 VGND VNB VPB VPWR X
.ends

* Black-box entry subcircuit for sky130_fd_sc_hd__a21boi_1 abstract view
.subckt sky130_fd_sc_hd__a21boi_1 A1 A2 B1_N VGND VNB VPB VPWR Y
.ends

* Black-box entry subcircuit for sky130_fd_sc_hd__a311o_1 abstract view
.subckt sky130_fd_sc_hd__a311o_1 A1 A2 A3 B1 C1 VGND VNB VPB VPWR X
.ends

* Black-box entry subcircuit for sky130_fd_sc_hd__a31oi_2 abstract view
.subckt sky130_fd_sc_hd__a31oi_2 A1 A2 A3 B1 VGND VNB VPB VPWR Y
.ends

* Black-box entry subcircuit for sky130_fd_sc_hd__clkinv_4 abstract view
.subckt sky130_fd_sc_hd__clkinv_4 A VGND VNB VPB VPWR Y
.ends

* Black-box entry subcircuit for sky130_fd_sc_hd__or4b_2 abstract view
.subckt sky130_fd_sc_hd__or4b_2 A B C D_N VGND VNB VPB VPWR X
.ends

* Black-box entry subcircuit for sky130_fd_sc_hd__o41a_4 abstract view
.subckt sky130_fd_sc_hd__o41a_4 A1 A2 A3 A4 B1 VGND VNB VPB VPWR X
.ends

* Black-box entry subcircuit for sky130_fd_sc_hd__o211ai_2 abstract view
.subckt sky130_fd_sc_hd__o211ai_2 A1 A2 B1 C1 VGND VNB VPB VPWR Y
.ends

* Black-box entry subcircuit for sky130_fd_sc_hd__nand3b_1 abstract view
.subckt sky130_fd_sc_hd__nand3b_1 A_N B C VGND VNB VPB VPWR Y
.ends

* Black-box entry subcircuit for sky130_fd_sc_hd__o21bai_1 abstract view
.subckt sky130_fd_sc_hd__o21bai_1 A1 A2 B1_N VGND VNB VPB VPWR Y
.ends

* Black-box entry subcircuit for sky130_fd_sc_hd__inv_8 abstract view
.subckt sky130_fd_sc_hd__inv_8 A VGND VNB VPB VPWR Y
.ends

* Black-box entry subcircuit for sky130_fd_sc_hd__clkbuf_16 abstract view
.subckt sky130_fd_sc_hd__clkbuf_16 A VGND VNB VPB VPWR X
.ends

* Black-box entry subcircuit for sky130_fd_sc_hd__or2_4 abstract view
.subckt sky130_fd_sc_hd__or2_4 A B VGND VNB VPB VPWR X
.ends

* Black-box entry subcircuit for sky130_fd_sc_hd__o21a_2 abstract view
.subckt sky130_fd_sc_hd__o21a_2 A1 A2 B1 VGND VNB VPB VPWR X
.ends

* Black-box entry subcircuit for sky130_fd_sc_hd__o221ai_2 abstract view
.subckt sky130_fd_sc_hd__o221ai_2 A1 A2 B1 B2 C1 VGND VNB VPB VPWR Y
.ends

* Black-box entry subcircuit for sky130_fd_sc_hd__a21o_2 abstract view
.subckt sky130_fd_sc_hd__a21o_2 A1 A2 B1 VGND VNB VPB VPWR X
.ends

* Black-box entry subcircuit for sky130_fd_sc_hd__o2111ai_1 abstract view
.subckt sky130_fd_sc_hd__o2111ai_1 A1 A2 B1 C1 D1 VGND VNB VPB VPWR Y
.ends

* Black-box entry subcircuit for sky130_fd_sc_hd__a32oi_4 abstract view
.subckt sky130_fd_sc_hd__a32oi_4 A1 A2 A3 B1 B2 VGND VNB VPB VPWR Y
.ends

* Black-box entry subcircuit for sky130_fd_sc_hd__and2_2 abstract view
.subckt sky130_fd_sc_hd__and2_2 A B VGND VNB VPB VPWR X
.ends

* Black-box entry subcircuit for sky130_fd_sc_hd__clkinvlp_4 abstract view
.subckt sky130_fd_sc_hd__clkinvlp_4 A VGND VNB VPB VPWR Y
.ends

* Black-box entry subcircuit for sky130_fd_sc_hd__a2bb2o_2 abstract view
.subckt sky130_fd_sc_hd__a2bb2o_2 A1_N A2_N B1 B2 VGND VNB VPB VPWR X
.ends

* Black-box entry subcircuit for sky130_fd_sc_hd__nand2b_4 abstract view
.subckt sky130_fd_sc_hd__nand2b_4 A_N B VGND VNB VPB VPWR Y
.ends

* Black-box entry subcircuit for sky130_fd_sc_hd__o311a_1 abstract view
.subckt sky130_fd_sc_hd__o311a_1 A1 A2 A3 B1 C1 VGND VNB VPB VPWR X
.ends

* Black-box entry subcircuit for sky130_fd_sc_hd__nand2_4 abstract view
.subckt sky130_fd_sc_hd__nand2_4 A B VGND VNB VPB VPWR Y
.ends

* Black-box entry subcircuit for sky130_fd_sc_hd__a211oi_1 abstract view
.subckt sky130_fd_sc_hd__a211oi_1 A1 A2 B1 C1 VGND VNB VPB VPWR Y
.ends

* Black-box entry subcircuit for sky130_fd_sc_hd__nand4_1 abstract view
.subckt sky130_fd_sc_hd__nand4_1 A B C D VGND VNB VPB VPWR Y
.ends

* Black-box entry subcircuit for sky130_fd_sc_hd__xor2_4 abstract view
.subckt sky130_fd_sc_hd__xor2_4 A B VGND VNB VPB VPWR X
.ends

* Black-box entry subcircuit for sky130_fd_sc_hd__xnor2_4 abstract view
.subckt sky130_fd_sc_hd__xnor2_4 A B VGND VNB VPB VPWR Y
.ends

* Black-box entry subcircuit for sky130_fd_sc_hd__a22oi_4 abstract view
.subckt sky130_fd_sc_hd__a22oi_4 A1 A2 B1 B2 VGND VNB VPB VPWR Y
.ends

* Black-box entry subcircuit for sky130_fd_sc_hd__and3b_2 abstract view
.subckt sky130_fd_sc_hd__and3b_2 A_N B C VGND VNB VPB VPWR X
.ends

* Black-box entry subcircuit for sky130_fd_sc_hd__a311oi_2 abstract view
.subckt sky130_fd_sc_hd__a311oi_2 A1 A2 A3 B1 C1 VGND VNB VPB VPWR Y
.ends

* Black-box entry subcircuit for sky130_fd_sc_hd__o32a_1 abstract view
.subckt sky130_fd_sc_hd__o32a_1 A1 A2 A3 B1 B2 VGND VNB VPB VPWR X
.ends

* Black-box entry subcircuit for sky130_fd_sc_hd__nand2_2 abstract view
.subckt sky130_fd_sc_hd__nand2_2 A B VGND VNB VPB VPWR Y
.ends

* Black-box entry subcircuit for sky130_fd_sc_hd__or3b_2 abstract view
.subckt sky130_fd_sc_hd__or3b_2 A B C_N VGND VNB VPB VPWR X
.ends

* Black-box entry subcircuit for sky130_fd_sc_hd__o22ai_1 abstract view
.subckt sky130_fd_sc_hd__o22ai_1 A1 A2 B1 B2 VGND VNB VPB VPWR Y
.ends

* Black-box entry subcircuit for sky130_fd_sc_hd__inv_12 abstract view
.subckt sky130_fd_sc_hd__inv_12 A VGND VNB VPB VPWR Y
.ends

* Black-box entry subcircuit for sky130_fd_sc_hd__o221ai_1 abstract view
.subckt sky130_fd_sc_hd__o221ai_1 A1 A2 B1 B2 C1 VGND VNB VPB VPWR Y
.ends

* Black-box entry subcircuit for sky130_fd_sc_hd__o21ba_2 abstract view
.subckt sky130_fd_sc_hd__o21ba_2 A1 A2 B1_N VGND VNB VPB VPWR X
.ends

* Black-box entry subcircuit for sky130_fd_sc_hd__xnor2_2 abstract view
.subckt sky130_fd_sc_hd__xnor2_2 A B VGND VNB VPB VPWR Y
.ends

* Black-box entry subcircuit for sky130_fd_sc_hd__o21ai_4 abstract view
.subckt sky130_fd_sc_hd__o21ai_4 A1 A2 B1 VGND VNB VPB VPWR Y
.ends

* Black-box entry subcircuit for sky130_fd_sc_hd__nor3_4 abstract view
.subckt sky130_fd_sc_hd__nor3_4 A B C VGND VNB VPB VPWR Y
.ends

* Black-box entry subcircuit for sky130_fd_sc_hd__a41oi_1 abstract view
.subckt sky130_fd_sc_hd__a41oi_1 A1 A2 A3 A4 B1 VGND VNB VPB VPWR Y
.ends

* Black-box entry subcircuit for sky130_fd_sc_hd__o41a_2 abstract view
.subckt sky130_fd_sc_hd__o41a_2 A1 A2 A3 A4 B1 VGND VNB VPB VPWR X
.ends

* Black-box entry subcircuit for sky130_fd_sc_hd__and2b_2 abstract view
.subckt sky130_fd_sc_hd__and2b_2 A_N B VGND VNB VPB VPWR X
.ends

* Black-box entry subcircuit for sky130_fd_sc_hd__and3b_4 abstract view
.subckt sky130_fd_sc_hd__and3b_4 A_N B C VGND VNB VPB VPWR X
.ends

* Black-box entry subcircuit for sky130_fd_sc_hd__a22oi_1 abstract view
.subckt sky130_fd_sc_hd__a22oi_1 A1 A2 B1 B2 VGND VNB VPB VPWR Y
.ends

* Black-box entry subcircuit for sky130_fd_sc_hd__or4_2 abstract view
.subckt sky130_fd_sc_hd__or4_2 A B C D VGND VNB VPB VPWR X
.ends

* Black-box entry subcircuit for sky130_fd_sc_hd__and4bb_4 abstract view
.subckt sky130_fd_sc_hd__and4bb_4 A_N B_N C D VGND VNB VPB VPWR X
.ends

* Black-box entry subcircuit for sky130_fd_sc_hd__mux4_2 abstract view
.subckt sky130_fd_sc_hd__mux4_2 A0 A1 A2 A3 S0 S1 VGND VNB VPB VPWR X
.ends

* Black-box entry subcircuit for sky130_fd_sc_hd__o211ai_1 abstract view
.subckt sky130_fd_sc_hd__o211ai_1 A1 A2 B1 C1 VGND VNB VPB VPWR Y
.ends

* Black-box entry subcircuit for sky130_fd_sc_hd__a211o_2 abstract view
.subckt sky130_fd_sc_hd__a211o_2 A1 A2 B1 C1 VGND VNB VPB VPWR X
.ends

* Black-box entry subcircuit for sky130_fd_sc_hd__o31ai_4 abstract view
.subckt sky130_fd_sc_hd__o31ai_4 A1 A2 A3 B1 VGND VNB VPB VPWR Y
.ends

* Black-box entry subcircuit for sky130_fd_sc_hd__o21bai_2 abstract view
.subckt sky130_fd_sc_hd__o21bai_2 A1 A2 B1_N VGND VNB VPB VPWR Y
.ends

* Black-box entry subcircuit for sky130_fd_sc_hd__or4b_4 abstract view
.subckt sky130_fd_sc_hd__or4b_4 A B C D_N VGND VNB VPB VPWR X
.ends

* Black-box entry subcircuit for sky130_fd_sc_hd__o311ai_4 abstract view
.subckt sky130_fd_sc_hd__o311ai_4 A1 A2 A3 B1 C1 VGND VNB VPB VPWR Y
.ends

* Black-box entry subcircuit for sky130_fd_sc_hd__o211ai_4 abstract view
.subckt sky130_fd_sc_hd__o211ai_4 A1 A2 B1 C1 VGND VNB VPB VPWR Y
.ends

* Black-box entry subcircuit for sky130_fd_sc_hd__a21o_4 abstract view
.subckt sky130_fd_sc_hd__a21o_4 A1 A2 B1 VGND VNB VPB VPWR X
.ends

* Black-box entry subcircuit for sky130_fd_sc_hd__o211a_2 abstract view
.subckt sky130_fd_sc_hd__o211a_2 A1 A2 B1 C1 VGND VNB VPB VPWR X
.ends

.subckt team_05 ACK_I ADR_O[0] ADR_O[10] ADR_O[11] ADR_O[12] ADR_O[13] ADR_O[14] ADR_O[15]
+ ADR_O[16] ADR_O[17] ADR_O[18] ADR_O[19] ADR_O[1] ADR_O[20] ADR_O[21] ADR_O[22] ADR_O[23]
+ ADR_O[24] ADR_O[25] ADR_O[26] ADR_O[27] ADR_O[28] ADR_O[29] ADR_O[2] ADR_O[30] ADR_O[31]
+ ADR_O[3] ADR_O[4] ADR_O[5] ADR_O[6] ADR_O[7] ADR_O[8] ADR_O[9] CYC_O DAT_I[0] DAT_I[10]
+ DAT_I[11] DAT_I[12] DAT_I[13] DAT_I[14] DAT_I[15] DAT_I[16] DAT_I[17] DAT_I[18]
+ DAT_I[19] DAT_I[1] DAT_I[20] DAT_I[21] DAT_I[22] DAT_I[23] DAT_I[24] DAT_I[25] DAT_I[26]
+ DAT_I[27] DAT_I[28] DAT_I[29] DAT_I[2] DAT_I[30] DAT_I[31] DAT_I[3] DAT_I[4] DAT_I[5]
+ DAT_I[6] DAT_I[7] DAT_I[8] DAT_I[9] DAT_O[0] DAT_O[10] DAT_O[11] DAT_O[12] DAT_O[13]
+ DAT_O[14] DAT_O[15] DAT_O[16] DAT_O[17] DAT_O[18] DAT_O[19] DAT_O[1] DAT_O[20] DAT_O[21]
+ DAT_O[22] DAT_O[23] DAT_O[24] DAT_O[25] DAT_O[26] DAT_O[27] DAT_O[28] DAT_O[29]
+ DAT_O[2] DAT_O[30] DAT_O[31] DAT_O[3] DAT_O[4] DAT_O[5] DAT_O[6] DAT_O[7] DAT_O[8]
+ DAT_O[9] SEL_O[0] SEL_O[1] SEL_O[2] SEL_O[3] STB_O WE_O clk en gpio_in[0] gpio_in[10]
+ gpio_in[11] gpio_in[12] gpio_in[13] gpio_in[14] gpio_in[15] gpio_in[16] gpio_in[17]
+ gpio_in[18] gpio_in[19] gpio_in[1] gpio_in[20] gpio_in[21] gpio_in[22] gpio_in[23]
+ gpio_in[24] gpio_in[25] gpio_in[26] gpio_in[27] gpio_in[28] gpio_in[29] gpio_in[2]
+ gpio_in[30] gpio_in[31] gpio_in[32] gpio_in[33] gpio_in[3] gpio_in[4] gpio_in[5]
+ gpio_in[6] gpio_in[7] gpio_in[8] gpio_in[9] gpio_oeb[0] gpio_oeb[10] gpio_oeb[11]
+ gpio_oeb[12] gpio_oeb[13] gpio_oeb[14] gpio_oeb[15] gpio_oeb[16] gpio_oeb[17] gpio_oeb[18]
+ gpio_oeb[19] gpio_oeb[1] gpio_oeb[20] gpio_oeb[21] gpio_oeb[22] gpio_oeb[23] gpio_oeb[24]
+ gpio_oeb[25] gpio_oeb[26] gpio_oeb[27] gpio_oeb[28] gpio_oeb[29] gpio_oeb[2] gpio_oeb[30]
+ gpio_oeb[31] gpio_oeb[32] gpio_oeb[33] gpio_oeb[3] gpio_oeb[4] gpio_oeb[5] gpio_oeb[6]
+ gpio_oeb[7] gpio_oeb[8] gpio_oeb[9] gpio_out[0] gpio_out[10] gpio_out[11] gpio_out[12]
+ gpio_out[13] gpio_out[14] gpio_out[15] gpio_out[16] gpio_out[17] gpio_out[18] gpio_out[19]
+ gpio_out[1] gpio_out[20] gpio_out[21] gpio_out[22] gpio_out[23] gpio_out[24] gpio_out[25]
+ gpio_out[26] gpio_out[27] gpio_out[28] gpio_out[29] gpio_out[2] gpio_out[30] gpio_out[31]
+ gpio_out[32] gpio_out[33] gpio_out[3] gpio_out[4] gpio_out[5] gpio_out[6] gpio_out[7]
+ gpio_out[8] gpio_out[9] nrst vccd1 vssd1
X_05903_ top.sram_interface.CB_write_counter\[1\] _02452_ _02857_ top.CB_write_complete
+ vssd1 vssd1 vccd1 vccd1 _02878_ sky130_fd_sc_hd__a31o_1
X_09671_ net785 net625 vssd1 vssd1 vccd1 vccd1 _00285_ sky130_fd_sc_hd__and2_1
X_06883_ top.findLeastValue.val2\[42\] net150 net123 _03583_ vssd1 vssd1 vccd1 vccd1
+ _01984_ sky130_fd_sc_hd__o22a_1
X_08622_ top.cb_syn.num_lefts\[4\] _04829_ top.cb_syn.num_lefts\[5\] vssd1 vssd1 vccd1
+ vccd1 _04839_ sky130_fd_sc_hd__a21o_1
X_05834_ net452 _02843_ _02844_ _02780_ vssd1 vssd1 vccd1 vccd1 _02845_ sky130_fd_sc_hd__a211o_1
XANTENNA__05545__B1 net544 vssd1 vssd1 vccd1 vccd1 sky130_fd_sc_hd__diode_2
XANTENNA__06928__S net161 vssd1 vssd1 vccd1 vccd1 sky130_fd_sc_hd__diode_2
X_08553_ net1306 top.cb_syn.char_path_n\[23\] net229 vssd1 vssd1 vccd1 vccd1 _01541_
+ sky130_fd_sc_hd__mux2_1
X_05765_ top.translation.resEn top.translation.totalEn vssd1 vssd1 vccd1 vccd1 _02786_
+ sky130_fd_sc_hd__or2_1
X_08484_ net1075 top.cb_syn.char_path_n\[92\] net234 vssd1 vssd1 vccd1 vccd1 _01610_
+ sky130_fd_sc_hd__mux2_1
XTAP_TAPCELL_ROW_85_1362 vssd1 vccd1 sky130_fd_sc_hd__tapvpwrvgnd_1
XANTENNA__05560__A3 net361 vssd1 vssd1 vccd1 vccd1 sky130_fd_sc_hd__diode_2
XTAP_TAPCELL_ROW_53_949 vssd1 vccd1 sky130_fd_sc_hd__tapvpwrvgnd_1
X_07504_ _04091_ _04092_ _04093_ _04094_ _04072_ _04071_ vssd1 vssd1 vccd1 vccd1 _04095_
+ sky130_fd_sc_hd__mux4_1
X_07435_ _04026_ _04030_ net404 vssd1 vssd1 vccd1 vccd1 _04031_ sky130_fd_sc_hd__mux2_1
X_05696_ net18 net417 net359 top.WB.CPU_DAT_O\[24\] vssd1 vssd1 vccd1 vccd1 _02362_
+ sky130_fd_sc_hd__a22o_1
XANTENNA__05848__B2 top.WB.CPU_DAT_O\[19\] vssd1 vssd1 vccd1 vccd1 sky130_fd_sc_hd__diode_2
XANTENNA__09039__A1 top.WB.CPU_DAT_O\[18\] vssd1 vssd1 vccd1 vccd1 sky130_fd_sc_hd__diode_2
X_07366_ net499 _03553_ _03975_ vssd1 vssd1 vccd1 vccd1 _03976_ sky130_fd_sc_hd__a21o_1
XTAP_TAPCELL_ROW_33_684 vssd1 vccd1 sky130_fd_sc_hd__tapvpwrvgnd_1
X_09105_ _05123_ _05124_ _03323_ vssd1 vssd1 vccd1 vccd1 _00044_ sky130_fd_sc_hd__or3b_1
XANTENNA__08798__B1 net326 vssd1 vssd1 vccd1 vccd1 sky130_fd_sc_hd__diode_2
X_07297_ _03797_ _03930_ vssd1 vssd1 vccd1 vccd1 _03931_ sky130_fd_sc_hd__nand2_1
X_06317_ top.hist_data_o\[10\] top.hist_data_o\[9\] _03179_ vssd1 vssd1 vccd1 vccd1
+ _03180_ sky130_fd_sc_hd__and3_1
XFILLER_108_238 vccd1 vssd1 vccd1 vssd1 sky130_ef_sc_hd__decap_40_12
X_06248_ top.cw1\[3\] top.cw1\[2\] top.cw1\[1\] top.cw1\[0\] vssd1 vssd1 vccd1 vccd1
+ _03115_ sky130_fd_sc_hd__and4_1
X_09036_ net1371 top.WB.CPU_DAT_O\[21\] net291 vssd1 vssd1 vccd1 vccd1 _01276_ sky130_fd_sc_hd__mux2_1
XANTENNA_fanout796_A net806 vssd1 vssd1 vccd1 vccd1 sky130_fd_sc_hd__diode_2
X_06179_ _02946_ _03048_ vssd1 vssd1 vccd1 vccd1 _03049_ sky130_fd_sc_hd__nor2_1
XFILLER_89_100 vssd1 vssd1 vccd1 vccd1 sky130_fd_sc_hd__fill_1
Xhold362 top.hTree.tree_reg\[63\] vssd1 vssd1 vccd1 vccd1 net1315 sky130_fd_sc_hd__dlygate4sd3_1
Xhold340 top.hTree.node_reg\[43\] vssd1 vssd1 vccd1 vccd1 net1293 sky130_fd_sc_hd__dlygate4sd3_1
Xhold351 top.cb_syn.char_path\[45\] vssd1 vssd1 vccd1 vccd1 net1304 sky130_fd_sc_hd__dlygate4sd3_1
Xhold373 net63 vssd1 vssd1 vccd1 vccd1 net1326 sky130_fd_sc_hd__dlygate4sd3_1
Xhold384 top.path\[47\] vssd1 vssd1 vccd1 vccd1 net1337 sky130_fd_sc_hd__dlygate4sd3_1
XANTENNA__07347__X _03966_ vssd1 vssd1 vccd1 vccd1 sky130_fd_sc_hd__diode_2
XANTENNA__06025__A1 top.WB.CPU_DAT_O\[10\] vssd1 vssd1 vccd1 vccd1 sky130_fd_sc_hd__diode_2
Xhold395 top.cb_syn.char_path\[42\] vssd1 vssd1 vccd1 vccd1 net1348 sky130_fd_sc_hd__dlygate4sd3_1
XFILLER_77_306 vssd1 vssd1 vccd1 vccd1 sky130_fd_sc_hd__fill_1
X_09938_ net787 net627 vssd1 vssd1 vccd1 vccd1 _00552_ sky130_fd_sc_hd__and2_1
XANTENNA__07773__A1 net446 vssd1 vssd1 vccd1 vccd1 sky130_fd_sc_hd__diode_2
Xfanout842 net879 vssd1 vssd1 vccd1 vccd1 net842 sky130_fd_sc_hd__clkbuf_2
XANTENNA_fanout584_X net584 vssd1 vssd1 vccd1 vccd1 sky130_fd_sc_hd__diode_2
Xfanout820 net823 vssd1 vssd1 vccd1 vccd1 net820 sky130_fd_sc_hd__clkbuf_2
XTAP_TAPCELL_ROW_5_321 vssd1 vccd1 sky130_fd_sc_hd__tapvpwrvgnd_1
Xfanout831 net835 vssd1 vssd1 vccd1 vccd1 net831 sky130_fd_sc_hd__clkbuf_2
XANTENNA__08970__A0 top.WB.CPU_DAT_O\[22\] vssd1 vssd1 vccd1 vccd1 sky130_fd_sc_hd__diode_2
Xfanout875 net876 vssd1 vssd1 vccd1 vccd1 net875 sky130_fd_sc_hd__buf_1
Xfanout853 net857 vssd1 vssd1 vccd1 vccd1 net853 sky130_fd_sc_hd__clkbuf_2
Xfanout864 net865 vssd1 vssd1 vccd1 vccd1 net864 sky130_fd_sc_hd__clkbuf_2
XFILLER_58_531 vssd1 vssd1 vccd1 vccd1 sky130_fd_sc_hd__fill_1
XFILLER_92_309 vssd1 vssd1 vccd1 vccd1 sky130_fd_sc_hd__fill_1
X_09869_ net778 net618 vssd1 vssd1 vccd1 vccd1 _00483_ sky130_fd_sc_hd__and2_1
XANTENNA_fanout849_X net849 vssd1 vssd1 vccd1 vccd1 sky130_fd_sc_hd__diode_2
XANTENNA__05536__B1 net422 vssd1 vssd1 vccd1 vccd1 sky130_fd_sc_hd__diode_2
XFILLER_61_707 vssd1 vssd1 vccd1 vccd1 sky130_fd_sc_hd__fill_1
X_11831_ clknet_leaf_114_clk _02347_ _01186_ vssd1 vssd1 vccd1 vccd1 top.WB.CPU_DAT_O\[9\]
+ sky130_fd_sc_hd__dfrtp_4
XANTENNA__08338__B _02506_ vssd1 vssd1 vccd1 vccd1 sky130_fd_sc_hd__diode_2
XFILLER_14_623 vssd1 vssd1 vccd1 vccd1 sky130_fd_sc_hd__fill_1
X_11762_ clknet_leaf_114_clk _02295_ _01117_ vssd1 vssd1 vccd1 vccd1 top.compVal\[20\]
+ sky130_fd_sc_hd__dfrtp_4
XFILLER_14_645 vssd1 vssd1 vccd1 vccd1 sky130_fd_sc_hd__fill_4
XFILLER_26_85 vssd1 vssd1 vccd1 vccd1 sky130_fd_sc_hd__fill_1
X_11693_ clknet_leaf_61_clk _02226_ _01048_ vssd1 vssd1 vccd1 vccd1 top.sram_interface.init_counter\[18\]
+ sky130_fd_sc_hd__dfrtp_1
XFILLER_14_667 vssd1 vssd1 vccd1 vccd1 sky130_fd_sc_hd__fill_4
XFILLER_14_678 vssd1 vssd1 vccd1 vccd1 sky130_fd_sc_hd__fill_2
XANTENNA__05839__B2 top.WB.CPU_DAT_O\[28\] vssd1 vssd1 vccd1 vccd1 sky130_fd_sc_hd__diode_2
X_10713_ clknet_leaf_3_clk _01312_ _00132_ vssd1 vssd1 vccd1 vccd1 top.path\[89\]
+ sky130_fd_sc_hd__dfrtp_1
X_10644_ clknet_leaf_49_clk _00039_ _00063_ vssd1 vssd1 vccd1 vccd1 top.sram_interface.word_cnt\[10\]
+ sky130_fd_sc_hd__dfrtp_1
X_10575_ net810 net650 vssd1 vssd1 vccd1 vccd1 _01189_ sky130_fd_sc_hd__and2_1
XANTENNA__08789__B1 top.translation.index\[4\] vssd1 vssd1 vccd1 vccd1 sky130_fd_sc_hd__diode_2
XANTENNA__06264__B2 net160 vssd1 vssd1 vccd1 vccd1 sky130_fd_sc_hd__diode_2
XANTENNA__06016__A1 top.WB.CPU_DAT_O\[19\] vssd1 vssd1 vccd1 vccd1 sky130_fd_sc_hd__diode_2
X_11127_ clknet_leaf_30_clk _01675_ _00482_ vssd1 vssd1 vccd1 vccd1 top.cb_syn.char_path_n\[29\]
+ sky130_fd_sc_hd__dfrtp_2
XANTENNA__08961__A0 top.WB.CPU_DAT_O\[31\] vssd1 vssd1 vccd1 vccd1 sky130_fd_sc_hd__diode_2