* NGSPICE file created from team_05.ext - technology: sky130A

* Black-box entry subcircuit for sky130_fd_sc_hd__tapvpwrvgnd_1 abstract view
.subckt sky130_fd_sc_hd__tapvpwrvgnd_1 VGND VPWR
.ends

* Black-box entry subcircuit for sky130_fd_sc_hd__fill_2 abstract view
.subckt sky130_fd_sc_hd__fill_2 VGND VNB VPB VPWR
.ends

* Black-box entry subcircuit for sky130_ef_sc_hd__decap_40_12 abstract view
.subckt sky130_ef_sc_hd__decap_40_12 VPWR VGND VPB VNB
.ends

* Black-box entry subcircuit for sky130_fd_sc_hd__dfrtp_1 abstract view
.subckt sky130_fd_sc_hd__dfrtp_1 CLK D RESET_B VGND VNB VPB VPWR Q
.ends

* Black-box entry subcircuit for sky130_fd_sc_hd__fill_1 abstract view
.subckt sky130_fd_sc_hd__fill_1 VGND VNB VPB VPWR
.ends

* Black-box entry subcircuit for sky130_fd_sc_hd__fill_4 abstract view
.subckt sky130_fd_sc_hd__fill_4 VGND VNB VPB VPWR
.ends

* Black-box entry subcircuit for sky130_fd_sc_hd__o21a_1 abstract view
.subckt sky130_fd_sc_hd__o21a_1 A1 A2 B1 VGND VNB VPB VPWR X
.ends

* Black-box entry subcircuit for sky130_fd_sc_hd__clkbuf_8 abstract view
.subckt sky130_fd_sc_hd__clkbuf_8 A VGND VNB VPB VPWR X
.ends

* Black-box entry subcircuit for sky130_fd_sc_hd__and2_1 abstract view
.subckt sky130_fd_sc_hd__and2_1 A B VGND VNB VPB VPWR X
.ends

* Black-box entry subcircuit for sky130_fd_sc_hd__a221o_1 abstract view
.subckt sky130_fd_sc_hd__a221o_1 A1 A2 B1 B2 C1 VGND VNB VPB VPWR X
.ends

* Black-box entry subcircuit for sky130_fd_sc_hd__fill_8 abstract view
.subckt sky130_fd_sc_hd__fill_8 VGND VNB VPB VPWR
.ends

* Black-box entry subcircuit for sky130_fd_sc_hd__decap_3 abstract view
.subckt sky130_fd_sc_hd__decap_3 VGND VNB VPB VPWR
.ends

* Black-box entry subcircuit for sky130_fd_sc_hd__xor2_1 abstract view
.subckt sky130_fd_sc_hd__xor2_1 A B VGND VNB VPB VPWR X
.ends

* Black-box entry subcircuit for sky130_fd_sc_hd__and2b_1 abstract view
.subckt sky130_fd_sc_hd__and2b_1 A_N B VGND VNB VPB VPWR X
.ends

* Black-box entry subcircuit for sky130_fd_sc_hd__nand2_1 abstract view
.subckt sky130_fd_sc_hd__nand2_1 A B VGND VNB VPB VPWR Y
.ends

* Black-box entry subcircuit for sky130_fd_sc_hd__dlygate4sd3_1 abstract view
.subckt sky130_fd_sc_hd__dlygate4sd3_1 A VGND VNB VPB VPWR X
.ends

* Black-box entry subcircuit for sky130_fd_sc_hd__o21ai_2 abstract view
.subckt sky130_fd_sc_hd__o21ai_2 A1 A2 B1 VGND VNB VPB VPWR Y
.ends

* Black-box entry subcircuit for sky130_fd_sc_hd__conb_1 abstract view
.subckt sky130_fd_sc_hd__conb_1 VGND VNB VPB VPWR HI LO
.ends

* Black-box entry subcircuit for sky130_fd_sc_hd__nor2_1 abstract view
.subckt sky130_fd_sc_hd__nor2_1 A B VGND VNB VPB VPWR Y
.ends

* Black-box entry subcircuit for sky130_fd_sc_hd__or2_1 abstract view
.subckt sky130_fd_sc_hd__or2_1 A B VGND VNB VPB VPWR X
.ends

* Black-box entry subcircuit for sky130_fd_sc_hd__a31o_1 abstract view
.subckt sky130_fd_sc_hd__a31o_1 A1 A2 A3 B1 VGND VNB VPB VPWR X
.ends

* Black-box entry subcircuit for sky130_fd_sc_hd__a22o_1 abstract view
.subckt sky130_fd_sc_hd__a22o_1 A1 A2 B1 B2 VGND VNB VPB VPWR X
.ends

* Black-box entry subcircuit for sky130_fd_sc_hd__and3b_1 abstract view
.subckt sky130_fd_sc_hd__and3b_1 A_N B C VGND VNB VPB VPWR X
.ends

* Black-box entry subcircuit for sky130_fd_sc_hd__inv_2 abstract view
.subckt sky130_fd_sc_hd__inv_2 A VGND VNB VPB VPWR Y
.ends

* Black-box entry subcircuit for sky130_fd_sc_hd__xnor2_1 abstract view
.subckt sky130_fd_sc_hd__xnor2_1 A B VGND VNB VPB VPWR Y
.ends

* Black-box entry subcircuit for sky130_fd_sc_hd__a21oi_1 abstract view
.subckt sky130_fd_sc_hd__a21oi_1 A1 A2 B1 VGND VNB VPB VPWR Y
.ends

* Black-box entry subcircuit for sky130_fd_sc_hd__a21o_1 abstract view
.subckt sky130_fd_sc_hd__a21o_1 A1 A2 B1 VGND VNB VPB VPWR X
.ends

* Black-box entry subcircuit for sky130_fd_sc_hd__diode_2 abstract view
.subckt sky130_fd_sc_hd__diode_2 DIODE VGND VNB VPB VPWR
.ends

* Black-box entry subcircuit for sky130_fd_sc_hd__nor2_2 abstract view
.subckt sky130_fd_sc_hd__nor2_2 A B VGND VNB VPB VPWR Y
.ends

* Black-box entry subcircuit for sky130_fd_sc_hd__dfrtp_2 abstract view
.subckt sky130_fd_sc_hd__dfrtp_2 CLK D RESET_B VGND VNB VPB VPWR Q
.ends

* Black-box entry subcircuit for sky130_fd_sc_hd__o2bb2ai_1 abstract view
.subckt sky130_fd_sc_hd__o2bb2ai_1 A1_N A2_N B1 B2 VGND VNB VPB VPWR Y
.ends

* Black-box entry subcircuit for sky130_fd_sc_hd__or4_1 abstract view
.subckt sky130_fd_sc_hd__or4_1 A B C D VGND VNB VPB VPWR X
.ends

* Black-box entry subcircuit for sky130_fd_sc_hd__a2111o_1 abstract view
.subckt sky130_fd_sc_hd__a2111o_1 A1 A2 B1 C1 D1 VGND VNB VPB VPWR X
.ends

* Black-box entry subcircuit for sky130_fd_sc_hd__o32a_1 abstract view
.subckt sky130_fd_sc_hd__o32a_1 A1 A2 A3 B1 B2 VGND VNB VPB VPWR X
.ends

* Black-box entry subcircuit for sky130_fd_sc_hd__clkinv_2 abstract view
.subckt sky130_fd_sc_hd__clkinv_2 A VGND VNB VPB VPWR Y
.ends

* Black-box entry subcircuit for sky130_fd_sc_hd__o22a_1 abstract view
.subckt sky130_fd_sc_hd__o22a_1 A1 A2 B1 B2 VGND VNB VPB VPWR X
.ends

* Black-box entry subcircuit for sky130_fd_sc_hd__clkbuf_4 abstract view
.subckt sky130_fd_sc_hd__clkbuf_4 A VGND VNB VPB VPWR X
.ends

* Black-box entry subcircuit for sky130_fd_sc_hd__bufinv_16 abstract view
.subckt sky130_fd_sc_hd__bufinv_16 A VGND VNB VPB VPWR Y
.ends

* Black-box entry subcircuit for sky130_fd_sc_hd__and3_1 abstract view
.subckt sky130_fd_sc_hd__and3_1 A B C VGND VNB VPB VPWR X
.ends

* Black-box entry subcircuit for sky130_fd_sc_hd__a2bb2o_1 abstract view
.subckt sky130_fd_sc_hd__a2bb2o_1 A1_N A2_N B1 B2 VGND VNB VPB VPWR X
.ends

* Black-box entry subcircuit for sky130_fd_sc_hd__o221a_1 abstract view
.subckt sky130_fd_sc_hd__o221a_1 A1 A2 B1 B2 C1 VGND VNB VPB VPWR X
.ends

* Black-box entry subcircuit for sky130_fd_sc_hd__or3b_1 abstract view
.subckt sky130_fd_sc_hd__or3b_1 A B C_N VGND VNB VPB VPWR X
.ends

* Black-box entry subcircuit for sky130_fd_sc_hd__buf_2 abstract view
.subckt sky130_fd_sc_hd__buf_2 A VGND VNB VPB VPWR X
.ends

* Black-box entry subcircuit for sky130_fd_sc_hd__clkbuf_16 abstract view
.subckt sky130_fd_sc_hd__clkbuf_16 A VGND VNB VPB VPWR X
.ends

* Black-box entry subcircuit for sky130_fd_sc_hd__o21bai_2 abstract view
.subckt sky130_fd_sc_hd__o21bai_2 A1 A2 B1_N VGND VNB VPB VPWR Y
.ends

* Black-box entry subcircuit for sky130_fd_sc_hd__clkbuf_2 abstract view
.subckt sky130_fd_sc_hd__clkbuf_2 A VGND VNB VPB VPWR X
.ends

* Black-box entry subcircuit for sky130_fd_sc_hd__a211o_1 abstract view
.subckt sky130_fd_sc_hd__a211o_1 A1 A2 B1 C1 VGND VNB VPB VPWR X
.ends

* Black-box entry subcircuit for sky130_fd_sc_hd__nor2_4 abstract view
.subckt sky130_fd_sc_hd__nor2_4 A B VGND VNB VPB VPWR Y
.ends

* Black-box entry subcircuit for sky130_fd_sc_hd__mux2_1 abstract view
.subckt sky130_fd_sc_hd__mux2_1 A0 A1 S VGND VNB VPB VPWR X
.ends

* Black-box entry subcircuit for sky130_fd_sc_hd__a21oi_4 abstract view
.subckt sky130_fd_sc_hd__a21oi_4 A1 A2 B1 VGND VNB VPB VPWR Y
.ends

* Black-box entry subcircuit for sky130_fd_sc_hd__o21ai_1 abstract view
.subckt sky130_fd_sc_hd__o21ai_1 A1 A2 B1 VGND VNB VPB VPWR Y
.ends

* Black-box entry subcircuit for sky130_fd_sc_hd__dlymetal6s2s_1 abstract view
.subckt sky130_fd_sc_hd__dlymetal6s2s_1 A VGND VNB VPB VPWR X
.ends

* Black-box entry subcircuit for sky130_fd_sc_hd__and4_1 abstract view
.subckt sky130_fd_sc_hd__and4_1 A B C D VGND VNB VPB VPWR X
.ends

* Black-box entry subcircuit for sky130_fd_sc_hd__a32o_1 abstract view
.subckt sky130_fd_sc_hd__a32o_1 A1 A2 A3 B1 B2 VGND VNB VPB VPWR X
.ends

* Black-box entry subcircuit for sky130_fd_sc_hd__and4b_1 abstract view
.subckt sky130_fd_sc_hd__and4b_1 A_N B C D VGND VNB VPB VPWR X
.ends

* Black-box entry subcircuit for sky130_fd_sc_hd__xor2_2 abstract view
.subckt sky130_fd_sc_hd__xor2_2 A B VGND VNB VPB VPWR X
.ends

* Black-box entry subcircuit for sky130_fd_sc_hd__nand2b_1 abstract view
.subckt sky130_fd_sc_hd__nand2b_1 A_N B VGND VNB VPB VPWR Y
.ends

* Black-box entry subcircuit for sky130_fd_sc_hd__nand3_1 abstract view
.subckt sky130_fd_sc_hd__nand3_1 A B C VGND VNB VPB VPWR Y
.ends

* Black-box entry subcircuit for sky130_fd_sc_hd__or4_2 abstract view
.subckt sky130_fd_sc_hd__or4_2 A B C D VGND VNB VPB VPWR X
.ends

* Black-box entry subcircuit for sky130_fd_sc_hd__dfstp_1 abstract view
.subckt sky130_fd_sc_hd__dfstp_1 CLK D SET_B VGND VNB VPB VPWR Q
.ends

* Black-box entry subcircuit for sky130_fd_sc_hd__or4b_1 abstract view
.subckt sky130_fd_sc_hd__or4b_1 A B C D_N VGND VNB VPB VPWR X
.ends

* Black-box entry subcircuit for sky130_fd_sc_hd__clkbuf_1 abstract view
.subckt sky130_fd_sc_hd__clkbuf_1 A VGND VNB VPB VPWR X
.ends

* Black-box entry subcircuit for sky130_fd_sc_hd__nand3_4 abstract view
.subckt sky130_fd_sc_hd__nand3_4 A B C VGND VNB VPB VPWR Y
.ends

* Black-box entry subcircuit for sky130_fd_sc_hd__buf_1 abstract view
.subckt sky130_fd_sc_hd__buf_1 A VGND VNB VPB VPWR X
.ends

* Black-box entry subcircuit for sky130_fd_sc_hd__a21oi_2 abstract view
.subckt sky130_fd_sc_hd__a21oi_2 A1 A2 B1 VGND VNB VPB VPWR Y
.ends

* Black-box entry subcircuit for sky130_fd_sc_hd__o31ai_4 abstract view
.subckt sky130_fd_sc_hd__o31ai_4 A1 A2 A3 B1 VGND VNB VPB VPWR Y
.ends

* Black-box entry subcircuit for sky130_fd_sc_hd__o21ai_4 abstract view
.subckt sky130_fd_sc_hd__o21ai_4 A1 A2 B1 VGND VNB VPB VPWR Y
.ends

* Black-box entry subcircuit for sky130_fd_sc_hd__a211oi_2 abstract view
.subckt sky130_fd_sc_hd__a211oi_2 A1 A2 B1 C1 VGND VNB VPB VPWR Y
.ends

* Black-box entry subcircuit for sky130_fd_sc_hd__o211a_1 abstract view
.subckt sky130_fd_sc_hd__o211a_1 A1 A2 B1 C1 VGND VNB VPB VPWR X
.ends

* Black-box entry subcircuit for sky130_fd_sc_hd__and3_2 abstract view
.subckt sky130_fd_sc_hd__and3_2 A B C VGND VNB VPB VPWR X
.ends

* Black-box entry subcircuit for sky130_fd_sc_hd__o21ba_1 abstract view
.subckt sky130_fd_sc_hd__o21ba_1 A1 A2 B1_N VGND VNB VPB VPWR X
.ends

* Black-box entry subcircuit for sky130_fd_sc_hd__o31a_1 abstract view
.subckt sky130_fd_sc_hd__o31a_1 A1 A2 A3 B1 VGND VNB VPB VPWR X
.ends

* Black-box entry subcircuit for sky130_fd_sc_hd__o32a_2 abstract view
.subckt sky130_fd_sc_hd__o32a_2 A1 A2 A3 B1 B2 VGND VNB VPB VPWR X
.ends

* Black-box entry subcircuit for sky130_fd_sc_hd__or3_1 abstract view
.subckt sky130_fd_sc_hd__or3_1 A B C VGND VNB VPB VPWR X
.ends

* Black-box entry subcircuit for sky130_fd_sc_hd__nand4_1 abstract view
.subckt sky130_fd_sc_hd__nand4_1 A B C D VGND VNB VPB VPWR Y
.ends

* Black-box entry subcircuit for sky130_fd_sc_hd__nand2_2 abstract view
.subckt sky130_fd_sc_hd__nand2_2 A B VGND VNB VPB VPWR Y
.ends

* Black-box entry subcircuit for sky130_fd_sc_hd__o21bai_1 abstract view
.subckt sky130_fd_sc_hd__o21bai_1 A1 A2 B1_N VGND VNB VPB VPWR Y
.ends

* Black-box entry subcircuit for sky130_fd_sc_hd__a41o_1 abstract view
.subckt sky130_fd_sc_hd__a41o_1 A1 A2 A3 A4 B1 VGND VNB VPB VPWR X
.ends

* Black-box entry subcircuit for sky130_fd_sc_hd__and4bb_1 abstract view
.subckt sky130_fd_sc_hd__and4bb_1 A_N B_N C D VGND VNB VPB VPWR X
.ends

* Black-box entry subcircuit for sky130_fd_sc_hd__xnor2_2 abstract view
.subckt sky130_fd_sc_hd__xnor2_2 A B VGND VNB VPB VPWR Y
.ends

* Black-box entry subcircuit for sky130_fd_sc_hd__a21boi_1 abstract view
.subckt sky130_fd_sc_hd__a21boi_1 A1 A2 B1_N VGND VNB VPB VPWR Y
.ends

* Black-box entry subcircuit for sky130_fd_sc_hd__o311a_1 abstract view
.subckt sky130_fd_sc_hd__o311a_1 A1 A2 A3 B1 C1 VGND VNB VPB VPWR X
.ends

* Black-box entry subcircuit for sky130_fd_sc_hd__a21bo_2 abstract view
.subckt sky130_fd_sc_hd__a21bo_2 A1 A2 B1_N VGND VNB VPB VPWR X
.ends

* Black-box entry subcircuit for sky130_fd_sc_hd__a311o_1 abstract view
.subckt sky130_fd_sc_hd__a311o_1 A1 A2 A3 B1 C1 VGND VNB VPB VPWR X
.ends

* Black-box entry subcircuit for sky130_fd_sc_hd__o22ai_4 abstract view
.subckt sky130_fd_sc_hd__o22ai_4 A1 A2 B1 B2 VGND VNB VPB VPWR Y
.ends

* Black-box entry subcircuit for sky130_fd_sc_hd__o211ai_1 abstract view
.subckt sky130_fd_sc_hd__o211ai_1 A1 A2 B1 C1 VGND VNB VPB VPWR Y
.ends

* Black-box entry subcircuit for sky130_fd_sc_hd__o211ai_2 abstract view
.subckt sky130_fd_sc_hd__o211ai_2 A1 A2 B1 C1 VGND VNB VPB VPWR Y
.ends

* Black-box entry subcircuit for sky130_fd_sc_hd__mux2_2 abstract view
.subckt sky130_fd_sc_hd__mux2_2 A0 A1 S VGND VNB VPB VPWR X
.ends

* Black-box entry subcircuit for sky130_fd_sc_hd__dfrtp_4 abstract view
.subckt sky130_fd_sc_hd__dfrtp_4 CLK D RESET_B VGND VNB VPB VPWR Q
.ends

* Black-box entry subcircuit for sky130_fd_sc_hd__o2bb2a_2 abstract view
.subckt sky130_fd_sc_hd__o2bb2a_2 A1_N A2_N B1 B2 VGND VNB VPB VPWR X
.ends

.subckt team_05 clk en gpio_in[0] gpio_in[10] gpio_in[11] gpio_in[12] gpio_in[13]
+ gpio_in[14] gpio_in[15] gpio_in[16] gpio_in[17] gpio_in[18] gpio_in[19] gpio_in[1]
+ gpio_in[20] gpio_in[21] gpio_in[22] gpio_in[23] gpio_in[24] gpio_in[25] gpio_in[26]
+ gpio_in[27] gpio_in[28] gpio_in[29] gpio_in[2] gpio_in[30] gpio_in[31] gpio_in[32]
+ gpio_in[33] gpio_in[3] gpio_in[4] gpio_in[5] gpio_in[6] gpio_in[7] gpio_in[8] gpio_in[9]
+ gpio_oeb[0] gpio_oeb[10] gpio_oeb[11] gpio_oeb[12] gpio_oeb[13] gpio_oeb[14] gpio_oeb[15]
+ gpio_oeb[16] gpio_oeb[17] gpio_oeb[18] gpio_oeb[19] gpio_oeb[1] gpio_oeb[20] gpio_oeb[21]
+ gpio_oeb[22] gpio_oeb[23] gpio_oeb[24] gpio_oeb[25] gpio_oeb[26] gpio_oeb[27] gpio_oeb[28]
+ gpio_oeb[29] gpio_oeb[2] gpio_oeb[30] gpio_oeb[31] gpio_oeb[32] gpio_oeb[33] gpio_oeb[3]
+ gpio_oeb[4] gpio_oeb[5] gpio_oeb[6] gpio_oeb[7] gpio_oeb[8] gpio_oeb[9] gpio_out[0]
+ gpio_out[10] gpio_out[11] gpio_out[12] gpio_out[13] gpio_out[14] gpio_out[15] gpio_out[16]
+ gpio_out[17] gpio_out[18] gpio_out[19] gpio_out[1] gpio_out[20] gpio_out[21] gpio_out[22]
+ gpio_out[23] gpio_out[24] gpio_out[25] gpio_out[26] gpio_out[27] gpio_out[28] gpio_out[29]
+ gpio_out[2] gpio_out[30] gpio_out[31] gpio_out[32] gpio_out[33] gpio_out[3] gpio_out[4]
+ gpio_out[5] gpio_out[6] gpio_out[7] gpio_out[8] gpio_out[9] nrst vccd1 vssd1
XTAP_TAPCELL_ROW_9_126 vssd1 vccd1 sky130_fd_sc_hd__tapvpwrvgnd_1
XFILLER_9_137 vssd1 vssd1 vccd1 vccd1 sky130_fd_sc_hd__fill_2
XFILLER_8_181 vccd1 vssd1 vccd1 vssd1 sky130_ef_sc_hd__decap_40_12
X_0985_ clknet_4_12_0_clk _0024_ net58 vssd1 vssd1 vccd1 vccd1 SYNTH_INST.waveshape.scaled_count\[5\]
+ sky130_fd_sc_hd__dfrtp_1
XTAP_TAPCELL_ROW_20_175 vssd1 vccd1 sky130_fd_sc_hd__tapvpwrvgnd_1
XFILLER_18_203 vssd1 vssd1 vccd1 vccd1 sky130_fd_sc_hd__fill_1
XFILLER_5_140 vssd1 vssd1 vccd1 vccd1 sky130_fd_sc_hd__fill_4
X_0770_ net193 net25 net21 vssd1 vssd1 vccd1 vccd1 _0027_ sky130_fd_sc_hd__o21a_1
XFILLER_24_217 vssd1 vssd1 vccd1 vccd1 sky130_fd_sc_hd__fill_4
X_0968_ clknet_4_11_0_clk _0007_ net61 vssd1 vssd1 vccd1 vccd1 SYNTH_INST.waveshape.seq_div.dividend\[11\]
+ sky130_fd_sc_hd__dfrtp_1
Xclkbuf_4_12_0_clk clknet_0_clk vssd1 vssd1 vccd1 vccd1 clknet_4_12_0_clk sky130_fd_sc_hd__clkbuf_8
X_0899_ _0199_ _0432_ vssd1 vssd1 vccd1 vccd1 _0056_ sky130_fd_sc_hd__and2_1
XFILLER_2_154 vssd1 vssd1 vccd1 vccd1 sky130_fd_sc_hd__fill_2
XFILLER_0_13 vssd1 vssd1 vccd1 vccd1 sky130_fd_sc_hd__fill_4
XFILLER_0_57 vssd1 vssd1 vccd1 vccd1 sky130_fd_sc_hd__fill_2
X_0822_ SYNTH_INST.waveshape.seq_div.dividend\[28\] net46 vssd1 vssd1 vccd1 vccd1
+ _0375_ sky130_fd_sc_hd__and2_1
XFILLER_9_55 vssd1 vssd1 vccd1 vccd1 sky130_fd_sc_hd__fill_1
XFILLER_9_88 vssd1 vssd1 vccd1 vccd1 sky130_fd_sc_hd__fill_2
X_0753_ net163 net22 _0324_ vssd1 vssd1 vccd1 vccd1 _0018_ sky130_fd_sc_hd__o21a_1
X_0684_ SYNTH_INST.waveshape.scaled_count\[1\] _0285_ _0286_ _0288_ _0284_ vssd1 vssd1
+ vccd1 vccd1 SYNTH_INST.waveshape.shaper.n_sample\[1\] sky130_fd_sc_hd__a221o_1
XFILLER_12_209 vssd1 vssd1 vccd1 vccd1 sky130_fd_sc_hd__fill_8
XFILLER_20_253 vssd1 vssd1 vccd1 vccd1 sky130_fd_sc_hd__fill_2
XPHY_EDGE_ROW_8_Left_47 vssd1 vssd1 vccd1 vccd1 sky130_fd_sc_hd__decap_3
XFILLER_34_85 vssd1 vssd1 vccd1 vccd1 sky130_fd_sc_hd__fill_2
XFILLER_11_220 vssd1 vssd1 vccd1 vccd1 sky130_fd_sc_hd__fill_4
XFILLER_38_139 vssd1 vssd1 vccd1 vccd1 sky130_fd_sc_hd__fill_1
X_1021_ clknet_4_1_0_clk _0046_ net47 vssd1 vssd1 vccd1 vccd1 SYNTH_INST.waveshape.seq_div.dividend\[38\]
+ sky130_fd_sc_hd__dfrtp_1
X_0805_ _0131_ _0132_ vssd1 vssd1 vccd1 vccd1 _0362_ sky130_fd_sc_hd__xor2_1
X_0598_ SYNTH_INST.sample_rate.count\[0\] _0225_ vssd1 vssd1 vccd1 vccd1 SYNTH_INST.sample_rate.n_count\[0\]
+ sky130_fd_sc_hd__and2b_1
X_0736_ net44 SYNTH_INST.waveshape.seq_div.dividend\[13\] net29 SYNTH_INST.count\[6\]
+ net20 vssd1 vssd1 vccd1 vccd1 _0316_ sky130_fd_sc_hd__a221o_1
X_0667_ SYNTH_INST.count\[13\] _0274_ vssd1 vssd1 vccd1 vccd1 _0276_ sky130_fd_sc_hd__nand2_1
XFILLER_4_227 vssd1 vssd1 vccd1 vccd1 sky130_fd_sc_hd__fill_1
XFILLER_4_205 vssd1 vssd1 vccd1 vccd1 sky130_fd_sc_hd__fill_1
Xhold41 SYNTH_INST.waveshape.seq_div.dividend\[15\] vssd1 vssd1 vccd1 vccd1 net173
+ sky130_fd_sc_hd__dlygate4sd3_1
Xhold30 SYNTH_INST.waveshape.seq_div.dividend\[14\] vssd1 vssd1 vccd1 vccd1 net162
+ sky130_fd_sc_hd__dlygate4sd3_1
Xhold63 SYNTH_INST.waveshape.scaled_count\[6\] vssd1 vssd1 vccd1 vccd1 net195 sky130_fd_sc_hd__dlygate4sd3_1
Xhold52 SYNTH_INST.waveshape.scaled_count\[1\] vssd1 vssd1 vccd1 vccd1 net184 sky130_fd_sc_hd__dlygate4sd3_1
XFILLER_29_63 vssd1 vssd1 vccd1 vccd1 sky130_fd_sc_hd__fill_1
XFILLER_28_172 vssd1 vssd1 vccd1 vccd1 sky130_fd_sc_hd__fill_1
XFILLER_6_78 vssd1 vssd1 vccd1 vccd1 sky130_fd_sc_hd__fill_4
X_0521_ net30 _0153_ _0119_ vssd1 vssd1 vccd1 vccd1 _0154_ sky130_fd_sc_hd__o21ai_2
X_0452_ net30 net35 vssd1 vssd1 vccd1 vccd1 _0085_ sky130_fd_sc_hd__and2b_1
XFILLER_13_3 vccd1 vssd1 vccd1 vssd1 sky130_ef_sc_hd__decap_40_12
X_1004_ clknet_4_15_0_clk SYNTH_INST.pwm_counter.n_count\[5\] net60 vssd1 vssd1 vccd1
+ vccd1 SYNTH_INST.pwm_counter.count\[5\] sky130_fd_sc_hd__dfrtp_1
XFILLER_34_197 vccd1 vssd1 vccd1 vssd1 sky130_ef_sc_hd__decap_40_12
XFILLER_34_131 vssd1 vssd1 vccd1 vccd1 sky130_fd_sc_hd__fill_1
X_0719_ SYNTH_INST.waveshape.seq_div.dividend\[47\] _0190_ net143 vssd1 vssd1 vccd1
+ vccd1 _0000_ sky130_fd_sc_hd__o21a_1
Xteam_05_95 vssd1 vssd1 vccd1 vccd1 team_05_95/HI gpio_oeb[33] sky130_fd_sc_hd__conb_1
Xteam_05_73 vssd1 vssd1 vccd1 vccd1 team_05_73/HI gpio_oeb[10] sky130_fd_sc_hd__conb_1
XFILLER_15_32 vssd1 vssd1 vccd1 vccd1 sky130_fd_sc_hd__fill_1
XFILLER_17_109 vssd1 vssd1 vccd1 vccd1 sky130_fd_sc_hd__fill_2
XFILLER_25_131 vssd1 vssd1 vccd1 vccd1 sky130_fd_sc_hd__fill_1
Xteam_05_84 vssd1 vssd1 vccd1 vccd1 team_05_84/HI gpio_oeb[22] sky130_fd_sc_hd__conb_1
XFILLER_16_197 vssd1 vssd1 vccd1 vccd1 sky130_fd_sc_hd__fill_4
X_0504_ _0114_ _0136_ vssd1 vssd1 vccd1 vccd1 _0137_ sky130_fd_sc_hd__nor2_1
XPHY_EDGE_ROW_37_Left_76 vssd1 vssd1 vccd1 vccd1 sky130_fd_sc_hd__decap_3
XFILLER_3_57 vssd1 vssd1 vccd1 vccd1 sky130_fd_sc_hd__fill_4
XFILLER_3_46 vssd1 vssd1 vccd1 vccd1 sky130_fd_sc_hd__fill_1
XFILLER_3_35 vssd1 vssd1 vccd1 vccd1 sky130_fd_sc_hd__fill_2
X_0984_ clknet_4_12_0_clk _0023_ net58 vssd1 vssd1 vccd1 vccd1 SYNTH_INST.waveshape.scaled_count\[4\]
+ sky130_fd_sc_hd__dfrtp_1
XFILLER_8_193 vssd1 vssd1 vccd1 vccd1 sky130_fd_sc_hd__fill_2
XTAP_TAPCELL_ROW_20_176 vssd1 vccd1 sky130_fd_sc_hd__tapvpwrvgnd_1
XFILLER_33_218 vssd1 vssd1 vccd1 vccd1 sky130_fd_sc_hd__fill_4
XFILLER_18_226 vssd1 vssd1 vccd1 vccd1 sky130_fd_sc_hd__fill_1
XTAP_TAPCELL_ROW_28_210 vssd1 vccd1 sky130_fd_sc_hd__tapvpwrvgnd_1
XTAP_TAPCELL_ROW_11_132 vssd1 vccd1 sky130_fd_sc_hd__tapvpwrvgnd_1
XTAP_TAPCELL_ROW_34_235 vssd1 vccd1 sky130_fd_sc_hd__tapvpwrvgnd_1
X_0967_ clknet_4_12_0_clk _0006_ net61 vssd1 vssd1 vccd1 vccd1 SYNTH_INST.waveshape.seq_div.dividend\[10\]
+ sky130_fd_sc_hd__dfrtp_1
X_0898_ SYNTH_INST.waveshape.seq_div.n\[0\] SYNTH_INST.waveshape.seq_div.state\[1\]
+ vssd1 vssd1 vccd1 vccd1 _0432_ sky130_fd_sc_hd__or2_1
XPHY_EDGE_ROW_12_Right_12 vssd1 vssd1 vccd1 vccd1 sky130_fd_sc_hd__decap_3
XPHY_EDGE_ROW_21_Right_21 vssd1 vssd1 vccd1 vccd1 sky130_fd_sc_hd__decap_3
XFILLER_23_32 vccd1 vssd1 vccd1 vssd1 sky130_ef_sc_hd__decap_40_12
XFILLER_2_122 vssd1 vssd1 vccd1 vccd1 sky130_fd_sc_hd__fill_1
XPHY_EDGE_ROW_30_Right_30 vssd1 vssd1 vccd1 vccd1 sky130_fd_sc_hd__decap_3
XFILLER_0_69 vssd1 vssd1 vccd1 vccd1 sky130_fd_sc_hd__fill_4
X_0821_ _0150_ _0156_ _0371_ _0072_ vssd1 vssd1 vccd1 vccd1 _0374_ sky130_fd_sc_hd__a31o_1
XFILLER_9_23 vssd1 vssd1 vccd1 vccd1 sky130_fd_sc_hd__fill_2
X_0752_ net42 SYNTH_INST.waveshape.seq_div.dividend\[21\] net28 SYNTH_INST.count\[14\]
+ net19 vssd1 vssd1 vccd1 vccd1 _0324_ sky130_fd_sc_hd__a221o_1
XPHY_EDGE_ROW_24_Left_63 vssd1 vssd1 vccd1 vccd1 sky130_fd_sc_hd__decap_3
X_0683_ SYNTH_INST.waveshape.scaled_count\[0\] SYNTH_INST.waveshape.scaled_count\[7\]
+ vssd1 vssd1 vccd1 vccd1 _0288_ sky130_fd_sc_hd__xor2_1
XFILLER_7_225 vssd1 vssd1 vccd1 vccd1 sky130_fd_sc_hd__fill_1
XFILLER_11_254 vssd1 vssd1 vccd1 vccd1 sky130_fd_sc_hd__fill_1
X_1020_ clknet_4_1_0_clk _0045_ net47 vssd1 vssd1 vccd1 vccd1 SYNTH_INST.waveshape.seq_div.dividend\[37\]
+ sky130_fd_sc_hd__dfrtp_1
Xclkbuf_4_11_0_clk clknet_0_clk vssd1 vssd1 vccd1 vccd1 clknet_4_11_0_clk sky130_fd_sc_hd__clkbuf_8
X_0804_ net25 _0360_ _0361_ net174 vssd1 vssd1 vccd1 vccd1 _0032_ sky130_fd_sc_hd__a22o_1
X_0735_ net161 net23 _0315_ vssd1 vssd1 vccd1 vccd1 _0009_ sky130_fd_sc_hd__o21a_1
X_0666_ _0274_ _0275_ net17 vssd1 vssd1 vccd1 vccd1 SYNTH_INST.oscill.n_count\[12\]
+ sky130_fd_sc_hd__and3b_1
X_0597_ _0194_ _0196_ vssd1 vssd1 vccd1 vccd1 _0225_ sky130_fd_sc_hd__and2b_1
XFILLER_37_184 vssd1 vssd1 vccd1 vccd1 sky130_fd_sc_hd__fill_1
XFILLER_29_129 vssd1 vssd1 vccd1 vccd1 sky130_fd_sc_hd__fill_1
Xhold20 SYNTH_INST.sample_rate.count\[4\] vssd1 vssd1 vccd1 vccd1 net152 sky130_fd_sc_hd__dlygate4sd3_1
Xhold64 SYNTH_INST.waveshape.seq_div.dividend\[28\] vssd1 vssd1 vccd1 vccd1 net196
+ sky130_fd_sc_hd__dlygate4sd3_1
Xhold42 SYNTH_INST.waveshape.seq_div.dividend\[24\] vssd1 vssd1 vccd1 vccd1 net174
+ sky130_fd_sc_hd__dlygate4sd3_1
Xhold31 SYNTH_INST.waveshape.seq_div.dividend\[22\] vssd1 vssd1 vccd1 vccd1 net163
+ sky130_fd_sc_hd__dlygate4sd3_1
Xhold53 SYNTH_INST.waveshape.scaled_count\[2\] vssd1 vssd1 vccd1 vccd1 net185 sky130_fd_sc_hd__dlygate4sd3_1
XFILLER_29_53 vssd1 vssd1 vccd1 vccd1 sky130_fd_sc_hd__fill_2
XFILLER_29_75 vssd1 vssd1 vccd1 vccd1 sky130_fd_sc_hd__fill_4
XFILLER_28_151 vssd1 vssd1 vccd1 vccd1 sky130_fd_sc_hd__fill_1
X_0520_ _0109_ _0123_ vssd1 vssd1 vccd1 vccd1 _0153_ sky130_fd_sc_hd__nor2_1
X_0451_ SYNTH_INST.mode\[1\] vssd1 vssd1 vccd1 vccd1 _0084_ sky130_fd_sc_hd__inv_2
X_1003_ clknet_4_15_0_clk SYNTH_INST.pwm_counter.n_count\[4\] net60 vssd1 vssd1 vccd1
+ vccd1 SYNTH_INST.pwm_counter.count\[4\] sky130_fd_sc_hd__dfrtp_1
XFILLER_19_195 vssd1 vssd1 vccd1 vccd1 sky130_fd_sc_hd__fill_1
XFILLER_34_187 vssd1 vssd1 vccd1 vccd1 sky130_fd_sc_hd__fill_2
XFILLER_34_165 vssd1 vssd1 vccd1 vccd1 sky130_fd_sc_hd__fill_1
X_0718_ _0074_ _0301_ vssd1 vssd1 vccd1 vccd1 SYNTH_INST.pwm_counter.n_count\[7\]
+ sky130_fd_sc_hd__xnor2_1
XPHY_EDGE_ROW_6_Right_6 vssd1 vssd1 vccd1 vccd1 sky130_fd_sc_hd__decap_3
Xteam_05_63 vssd1 vssd1 vccd1 vccd1 team_05_63/HI gpio_oeb[0] sky130_fd_sc_hd__conb_1
X_0649_ SYNTH_INST.count\[7\] _0262_ vssd1 vssd1 vccd1 vccd1 _0264_ sky130_fd_sc_hd__nand2_1
Xteam_05_74 vssd1 vssd1 vccd1 vccd1 team_05_74/HI gpio_oeb[11] sky130_fd_sc_hd__conb_1
Xteam_05_96 vssd1 vssd1 vccd1 vccd1 team_05_96/HI gpio_out[0] sky130_fd_sc_hd__conb_1
Xteam_05_85 vssd1 vssd1 vccd1 vccd1 team_05_85/HI gpio_oeb[23] sky130_fd_sc_hd__conb_1
XPHY_EDGE_ROW_11_Left_50 vssd1 vssd1 vccd1 vccd1 sky130_fd_sc_hd__decap_3
XFILLER_0_253 vssd1 vssd1 vccd1 vccd1 sky130_fd_sc_hd__fill_2
X_0503_ _0122_ _0135_ vssd1 vssd1 vccd1 vccd1 _0136_ sky130_fd_sc_hd__or2_1
XTAP_TAPCELL_ROW_17_160 vssd1 vccd1 sky130_fd_sc_hd__tapvpwrvgnd_1
XFILLER_22_179 vssd1 vssd1 vccd1 vccd1 sky130_fd_sc_hd__fill_4
XFILLER_13_113 vssd1 vssd1 vccd1 vccd1 sky130_fd_sc_hd__fill_1
X_0983_ clknet_4_12_0_clk _0022_ net58 vssd1 vssd1 vccd1 vccd1 SYNTH_INST.waveshape.scaled_count\[3\]
+ sky130_fd_sc_hd__dfrtp_1
XTAP_TAPCELL_ROW_6_109 vssd1 vccd1 sky130_fd_sc_hd__tapvpwrvgnd_1
XFILLER_10_138 vssd1 vssd1 vccd1 vccd1 sky130_fd_sc_hd__fill_2
XFILLER_12_23 vssd1 vssd1 vccd1 vccd1 sky130_fd_sc_hd__fill_1
XFILLER_5_6 vssd1 vssd1 vccd1 vccd1 sky130_fd_sc_hd__fill_8
XTAP_TAPCELL_ROW_28_211 vssd1 vccd1 sky130_fd_sc_hd__tapvpwrvgnd_1
XTAP_TAPCELL_ROW_11_133 vssd1 vccd1 sky130_fd_sc_hd__tapvpwrvgnd_1
XFILLER_5_153 vssd1 vssd1 vccd1 vccd1 sky130_fd_sc_hd__fill_2
XTAP_TAPCELL_ROW_34_236 vssd1 vccd1 sky130_fd_sc_hd__tapvpwrvgnd_1
X_0966_ clknet_4_12_0_clk _0005_ net58 vssd1 vssd1 vccd1 vccd1 SYNTH_INST.waveshape.seq_div.dividend\[9\]
+ sky130_fd_sc_hd__dfrtp_1
X_0897_ SYNTH_INST.waveshape.seq_div.dividend\[47\] net27 _0395_ _0431_ vssd1 vssd1
+ vccd1 vccd1 _0055_ sky130_fd_sc_hd__a22o_1
XFILLER_23_44 vccd1 vssd1 vccd1 vssd1 sky130_ef_sc_hd__decap_40_12
XFILLER_3_3 vccd1 vssd1 vccd1 vssd1 sky130_ef_sc_hd__decap_40_12
XFILLER_2_112 vssd1 vssd1 vccd1 vccd1 sky130_fd_sc_hd__fill_2
XFILLER_0_48 vssd1 vssd1 vccd1 vccd1 sky130_fd_sc_hd__fill_4
X_0820_ _0150_ _0371_ _0156_ vssd1 vssd1 vccd1 vccd1 _0373_ sky130_fd_sc_hd__a21oi_1
XFILLER_9_57 vssd1 vssd1 vccd1 vccd1 sky130_fd_sc_hd__fill_8
X_0751_ net160 _0309_ _0323_ vssd1 vssd1 vccd1 vccd1 _0017_ sky130_fd_sc_hd__o21a_1
XTAP_TAPCELL_ROW_0_80 vssd1 vccd1 sky130_fd_sc_hd__tapvpwrvgnd_1
X_0682_ _0286_ vssd1 vssd1 vccd1 vccd1 _0287_ sky130_fd_sc_hd__inv_2
X_0949_ clknet_4_14_0_clk SYNTH_INST.state_machine.nextState\[2\] net61 vssd1 vssd1
+ vccd1 vccd1 SYNTH_INST.mode\[1\] sky130_fd_sc_hd__dfrtp_1
XFILLER_34_87 vssd1 vssd1 vccd1 vccd1 sky130_fd_sc_hd__fill_1
XFILLER_7_215 vssd1 vssd1 vccd1 vccd1 sky130_fd_sc_hd__fill_1
X_0803_ net39 _0130_ net27 vssd1 vssd1 vccd1 vccd1 _0361_ sky130_fd_sc_hd__a21o_1
X_0734_ net45 SYNTH_INST.waveshape.seq_div.dividend\[12\] net29 SYNTH_INST.count\[5\]
+ net20 vssd1 vssd1 vccd1 vccd1 _0315_ sky130_fd_sc_hd__a221o_1
X_0665_ SYNTH_INST.count\[12\] _0272_ vssd1 vssd1 vccd1 vccd1 _0275_ sky130_fd_sc_hd__or2_1
X_0596_ net200 _0204_ _0224_ vssd1 vssd1 vccd1 vccd1 _0003_ sky130_fd_sc_hd__a21o_1
XFILLER_37_130 vccd1 vssd1 vccd1 vssd1 sky130_ef_sc_hd__decap_40_12
Xhold54 SYNTH_INST.pwm_counter.count\[3\] vssd1 vssd1 vccd1 vccd1 net186 sky130_fd_sc_hd__dlygate4sd3_1
Xhold10 _0065_ vssd1 vssd1 vccd1 vccd1 net142 sky130_fd_sc_hd__dlygate4sd3_1
Xhold21 SYNTH_INST.sample_rate.n_count\[4\] vssd1 vssd1 vccd1 vccd1 net153 sky130_fd_sc_hd__dlygate4sd3_1
Xhold65 SYNTH_INST.waveshape.seq_div.dividend\[25\] vssd1 vssd1 vccd1 vccd1 net197
+ sky130_fd_sc_hd__dlygate4sd3_1
Xhold32 SYNTH_INST.waveshape.seq_div.dividend\[16\] vssd1 vssd1 vccd1 vccd1 net164
+ sky130_fd_sc_hd__dlygate4sd3_1
Xhold43 SYNTH_INST.mode\[1\] vssd1 vssd1 vccd1 vccd1 net175 sky130_fd_sc_hd__dlygate4sd3_1
XANTENNA_fanout46_X net46 vssd1 vssd1 vccd1 vccd1 sky130_fd_sc_hd__diode_2
XFILLER_6_25 vssd1 vssd1 vccd1 vccd1 sky130_fd_sc_hd__fill_2
X_0450_ SYNTH_INST.state_machine.fsmState\[1\] vssd1 vssd1 vccd1 vccd1 _0083_ sky130_fd_sc_hd__inv_2
X_1002_ clknet_4_13_0_clk SYNTH_INST.pwm_counter.n_count\[3\] net60 vssd1 vssd1 vccd1
+ vccd1 SYNTH_INST.pwm_counter.count\[3\] sky130_fd_sc_hd__dfrtp_1
XFILLER_34_100 vssd1 vssd1 vccd1 vccd1 sky130_fd_sc_hd__fill_1
X_0717_ _0301_ _0305_ vssd1 vssd1 vccd1 vccd1 SYNTH_INST.pwm_counter.n_count\[6\]
+ sky130_fd_sc_hd__nor2_1
X_0648_ _0262_ _0263_ net18 vssd1 vssd1 vccd1 vccd1 SYNTH_INST.oscill.n_count\[6\]
+ sky130_fd_sc_hd__and3b_1
Xteam_05_97 vssd1 vssd1 vccd1 vccd1 team_05_97/HI gpio_out[1] sky130_fd_sc_hd__conb_1
Xteam_05_64 vssd1 vssd1 vccd1 vccd1 team_05_64/HI gpio_oeb[1] sky130_fd_sc_hd__conb_1
Xteam_05_86 vssd1 vssd1 vccd1 vccd1 team_05_86/HI gpio_oeb[24] sky130_fd_sc_hd__conb_1
Xteam_05_75 vssd1 vssd1 vccd1 vccd1 team_05_75/HI gpio_oeb[12] sky130_fd_sc_hd__conb_1
X_0579_ _0207_ _0209_ vssd1 vssd1 vccd1 vccd1 _0210_ sky130_fd_sc_hd__nor2_1
Xclkbuf_4_10_0_clk clknet_0_clk vssd1 vssd1 vccd1 vccd1 clknet_4_10_0_clk sky130_fd_sc_hd__clkbuf_8
X_0502_ _0133_ _0134_ vssd1 vssd1 vccd1 vccd1 _0135_ sky130_fd_sc_hd__and2_1
XTAP_TAPCELL_ROW_17_161 vssd1 vccd1 sky130_fd_sc_hd__tapvpwrvgnd_1
XTAP_TAPCELL_ROW_23_186 vssd1 vccd1 sky130_fd_sc_hd__tapvpwrvgnd_1
XFILLER_3_15 vccd1 vssd1 vccd1 vssd1 sky130_ef_sc_hd__decap_40_12
XFILLER_8_195 vssd1 vssd1 vccd1 vccd1 sky130_fd_sc_hd__fill_1
X_0982_ clknet_4_6_0_clk _0021_ net58 vssd1 vssd1 vccd1 vccd1 SYNTH_INST.waveshape.scaled_count\[2\]
+ sky130_fd_sc_hd__dfrtp_1
XFILLER_37_21 vccd1 vssd1 vccd1 vssd1 sky130_ef_sc_hd__decap_40_12
XTAP_TAPCELL_ROW_28_212 vssd1 vccd1 sky130_fd_sc_hd__tapvpwrvgnd_1
XFILLER_5_110 vssd1 vssd1 vccd1 vccd1 sky130_fd_sc_hd__fill_2
XTAP_TAPCELL_ROW_11_134 vssd1 vccd1 sky130_fd_sc_hd__tapvpwrvgnd_1
XTAP_TAPCELL_ROW_34_237 vssd1 vccd1 sky130_fd_sc_hd__tapvpwrvgnd_1
XFILLER_32_253 vssd1 vssd1 vccd1 vccd1 sky130_fd_sc_hd__fill_2
X_0965_ clknet_4_6_0_clk _0004_ net58 vssd1 vssd1 vccd1 vccd1 SYNTH_INST.waveshape.seq_div.dividend\[8\]
+ sky130_fd_sc_hd__dfrtp_1
X_0896_ SYNTH_INST.waveshape.seq_div.dividend\[46\] net42 _0430_ net38 vssd1 vssd1
+ vccd1 vccd1 _0431_ sky130_fd_sc_hd__a22o_1
XFILLER_23_78 vccd1 vssd1 vccd1 vssd1 sky130_ef_sc_hd__decap_40_12
XFILLER_0_27 vssd1 vssd1 vccd1 vccd1 sky130_fd_sc_hd__fill_1
XFILLER_9_25 vssd1 vssd1 vccd1 vccd1 sky130_fd_sc_hd__fill_1
XFILLER_9_47 vssd1 vssd1 vccd1 vccd1 sky130_fd_sc_hd__fill_8
XFILLER_14_253 vssd1 vssd1 vccd1 vccd1 sky130_fd_sc_hd__fill_2
X_0750_ net42 SYNTH_INST.waveshape.seq_div.dividend\[20\] net28 SYNTH_INST.count\[13\]
+ net19 vssd1 vssd1 vccd1 vccd1 _0323_ sky130_fd_sc_hd__a221o_1
X_0681_ SYNTH_INST.state_machine.fsmState\[1\] _0084_ vssd1 vssd1 vccd1 vccd1 _0286_
+ sky130_fd_sc_hd__nor2_2
XTAP_TAPCELL_ROW_0_81 vssd1 vccd1 sky130_fd_sc_hd__tapvpwrvgnd_1
X_0948_ clknet_4_14_0_clk SYNTH_INST.state_machine.nextState\[1\] net61 vssd1 vssd1
+ vccd1 vccd1 SYNTH_INST.state_machine.fsmState\[1\] sky130_fd_sc_hd__dfrtp_2
X_0879_ SYNTH_INST.waveshape.seq_div.dividend\[42\] _0415_ vssd1 vssd1 vccd1 vccd1
+ _0419_ sky130_fd_sc_hd__xnor2_1
XFILLER_18_67 vssd1 vssd1 vccd1 vccd1 sky130_fd_sc_hd__fill_4
XFILLER_38_109 vssd1 vssd1 vccd1 vccd1 sky130_fd_sc_hd__fill_2