* NGSPICE file created from team_00.ext - technology: sky130A

* Black-box entry subcircuit for sky130_ef_sc_hd__decap_40_12 abstract view
.subckt sky130_ef_sc_hd__decap_40_12 VPWR VGND VPB VNB
.ends

* Black-box entry subcircuit for sky130_fd_sc_hd__decap_3 abstract view
.subckt sky130_fd_sc_hd__decap_3 VGND VNB VPB VPWR
.ends

* Black-box entry subcircuit for sky130_fd_sc_hd__fill_1 abstract view
.subckt sky130_fd_sc_hd__fill_1 VGND VNB VPB VPWR
.ends

* Black-box entry subcircuit for sky130_fd_sc_hd__fill_2 abstract view
.subckt sky130_fd_sc_hd__fill_2 VGND VNB VPB VPWR
.ends

* Black-box entry subcircuit for sky130_fd_sc_hd__fill_4 abstract view
.subckt sky130_fd_sc_hd__fill_4 VGND VNB VPB VPWR
.ends

* Black-box entry subcircuit for sky130_fd_sc_hd__tapvpwrvgnd_1 abstract view
.subckt sky130_fd_sc_hd__tapvpwrvgnd_1 VGND VPWR
.ends

* Black-box entry subcircuit for sky130_fd_sc_hd__and4_1 abstract view
.subckt sky130_fd_sc_hd__and4_1 A B C D VGND VNB VPB VPWR X
.ends

* Black-box entry subcircuit for sky130_fd_sc_hd__o22a_1 abstract view
.subckt sky130_fd_sc_hd__o22a_1 A1 A2 B1 B2 VGND VNB VPB VPWR X
.ends

* Black-box entry subcircuit for sky130_fd_sc_hd__clkbuf_2 abstract view
.subckt sky130_fd_sc_hd__clkbuf_2 A VGND VNB VPB VPWR X
.ends

* Black-box entry subcircuit for sky130_fd_sc_hd__conb_1 abstract view
.subckt sky130_fd_sc_hd__conb_1 VGND VNB VPB VPWR HI LO
.ends

* Black-box entry subcircuit for sky130_fd_sc_hd__a21oi_1 abstract view
.subckt sky130_fd_sc_hd__a21oi_1 A1 A2 B1 VGND VNB VPB VPWR Y
.ends

* Black-box entry subcircuit for sky130_fd_sc_hd__nand2_1 abstract view
.subckt sky130_fd_sc_hd__nand2_1 A B VGND VNB VPB VPWR Y
.ends

* Black-box entry subcircuit for sky130_fd_sc_hd__diode_2 abstract view
.subckt sky130_fd_sc_hd__diode_2 DIODE VGND VNB VPB VPWR
.ends

* Black-box entry subcircuit for sky130_fd_sc_hd__fill_8 abstract view
.subckt sky130_fd_sc_hd__fill_8 VGND VNB VPB VPWR
.ends

* Black-box entry subcircuit for sky130_fd_sc_hd__o2111a_1 abstract view
.subckt sky130_fd_sc_hd__o2111a_1 A1 A2 B1 C1 D1 VGND VNB VPB VPWR X
.ends

* Black-box entry subcircuit for sky130_fd_sc_hd__xnor2_4 abstract view
.subckt sky130_fd_sc_hd__xnor2_4 A B VGND VNB VPB VPWR Y
.ends

* Black-box entry subcircuit for sky130_fd_sc_hd__and3_1 abstract view
.subckt sky130_fd_sc_hd__and3_1 A B C VGND VNB VPB VPWR X
.ends

* Black-box entry subcircuit for sky130_fd_sc_hd__o31a_1 abstract view
.subckt sky130_fd_sc_hd__o31a_1 A1 A2 A3 B1 VGND VNB VPB VPWR X
.ends

* Black-box entry subcircuit for sky130_fd_sc_hd__dfrtp_2 abstract view
.subckt sky130_fd_sc_hd__dfrtp_2 CLK D RESET_B VGND VNB VPB VPWR Q
.ends

* Black-box entry subcircuit for sky130_fd_sc_hd__a31o_1 abstract view
.subckt sky130_fd_sc_hd__a31o_1 A1 A2 A3 B1 VGND VNB VPB VPWR X
.ends

* Black-box entry subcircuit for sky130_fd_sc_hd__or2_1 abstract view
.subckt sky130_fd_sc_hd__or2_1 A B VGND VNB VPB VPWR X
.ends

* Black-box entry subcircuit for sky130_fd_sc_hd__or3b_1 abstract view
.subckt sky130_fd_sc_hd__or3b_1 A B C_N VGND VNB VPB VPWR X
.ends

* Black-box entry subcircuit for sky130_fd_sc_hd__xnor2_2 abstract view
.subckt sky130_fd_sc_hd__xnor2_2 A B VGND VNB VPB VPWR Y
.ends

* Black-box entry subcircuit for sky130_fd_sc_hd__xnor2_1 abstract view
.subckt sky130_fd_sc_hd__xnor2_1 A B VGND VNB VPB VPWR Y
.ends

* Black-box entry subcircuit for sky130_fd_sc_hd__xor2_1 abstract view
.subckt sky130_fd_sc_hd__xor2_1 A B VGND VNB VPB VPWR X
.ends

* Black-box entry subcircuit for sky130_fd_sc_hd__a211oi_2 abstract view
.subckt sky130_fd_sc_hd__a211oi_2 A1 A2 B1 C1 VGND VNB VPB VPWR Y
.ends

* Black-box entry subcircuit for sky130_fd_sc_hd__buf_2 abstract view
.subckt sky130_fd_sc_hd__buf_2 A VGND VNB VPB VPWR X
.ends

* Black-box entry subcircuit for sky130_fd_sc_hd__a22o_1 abstract view
.subckt sky130_fd_sc_hd__a22o_1 A1 A2 B1 B2 VGND VNB VPB VPWR X
.ends

* Black-box entry subcircuit for sky130_fd_sc_hd__xor2_2 abstract view
.subckt sky130_fd_sc_hd__xor2_2 A B VGND VNB VPB VPWR X
.ends

* Black-box entry subcircuit for sky130_fd_sc_hd__a22oi_1 abstract view
.subckt sky130_fd_sc_hd__a22oi_1 A1 A2 B1 B2 VGND VNB VPB VPWR Y
.ends

* Black-box entry subcircuit for sky130_fd_sc_hd__nor2_1 abstract view
.subckt sky130_fd_sc_hd__nor2_1 A B VGND VNB VPB VPWR Y
.ends

* Black-box entry subcircuit for sky130_fd_sc_hd__inv_2 abstract view
.subckt sky130_fd_sc_hd__inv_2 A VGND VNB VPB VPWR Y
.ends

* Black-box entry subcircuit for sky130_fd_sc_hd__a221o_1 abstract view
.subckt sky130_fd_sc_hd__a221o_1 A1 A2 B1 B2 C1 VGND VNB VPB VPWR X
.ends

* Black-box entry subcircuit for sky130_fd_sc_hd__nand4_1 abstract view
.subckt sky130_fd_sc_hd__nand4_1 A B C D VGND VNB VPB VPWR Y
.ends

* Black-box entry subcircuit for sky130_fd_sc_hd__o21ai_1 abstract view
.subckt sky130_fd_sc_hd__o21ai_1 A1 A2 B1 VGND VNB VPB VPWR Y
.ends

* Black-box entry subcircuit for sky130_fd_sc_hd__a2111oi_1 abstract view
.subckt sky130_fd_sc_hd__a2111oi_1 A1 A2 B1 C1 D1 VGND VNB VPB VPWR Y
.ends

* Black-box entry subcircuit for sky130_fd_sc_hd__o211ai_4 abstract view
.subckt sky130_fd_sc_hd__o211ai_4 A1 A2 B1 C1 VGND VNB VPB VPWR Y
.ends

* Black-box entry subcircuit for sky130_fd_sc_hd__clkbuf_1 abstract view
.subckt sky130_fd_sc_hd__clkbuf_1 A VGND VNB VPB VPWR X
.ends

* Black-box entry subcircuit for sky130_fd_sc_hd__and4b_1 abstract view
.subckt sky130_fd_sc_hd__and4b_1 A_N B C D VGND VNB VPB VPWR X
.ends

* Black-box entry subcircuit for sky130_fd_sc_hd__o211a_1 abstract view
.subckt sky130_fd_sc_hd__o211a_1 A1 A2 B1 C1 VGND VNB VPB VPWR X
.ends

* Black-box entry subcircuit for sky130_fd_sc_hd__nand2_2 abstract view
.subckt sky130_fd_sc_hd__nand2_2 A B VGND VNB VPB VPWR Y
.ends

* Black-box entry subcircuit for sky130_fd_sc_hd__dfrtp_1 abstract view
.subckt sky130_fd_sc_hd__dfrtp_1 CLK D RESET_B VGND VNB VPB VPWR Q
.ends

* Black-box entry subcircuit for sky130_fd_sc_hd__and2_1 abstract view
.subckt sky130_fd_sc_hd__and2_1 A B VGND VNB VPB VPWR X
.ends

* Black-box entry subcircuit for sky130_fd_sc_hd__xor2_4 abstract view
.subckt sky130_fd_sc_hd__xor2_4 A B VGND VNB VPB VPWR X
.ends

* Black-box entry subcircuit for sky130_fd_sc_hd__a221oi_2 abstract view
.subckt sky130_fd_sc_hd__a221oi_2 A1 A2 B1 B2 C1 VGND VNB VPB VPWR Y
.ends

* Black-box entry subcircuit for sky130_fd_sc_hd__a31oi_1 abstract view
.subckt sky130_fd_sc_hd__a31oi_1 A1 A2 A3 B1 VGND VNB VPB VPWR Y
.ends

* Black-box entry subcircuit for sky130_fd_sc_hd__o211a_2 abstract view
.subckt sky130_fd_sc_hd__o211a_2 A1 A2 B1 C1 VGND VNB VPB VPWR X
.ends

* Black-box entry subcircuit for sky130_fd_sc_hd__nand3_1 abstract view
.subckt sky130_fd_sc_hd__nand3_1 A B C VGND VNB VPB VPWR Y
.ends

* Black-box entry subcircuit for sky130_fd_sc_hd__clkbuf_4 abstract view
.subckt sky130_fd_sc_hd__clkbuf_4 A VGND VNB VPB VPWR X
.ends

* Black-box entry subcircuit for sky130_fd_sc_hd__or4b_1 abstract view
.subckt sky130_fd_sc_hd__or4b_1 A B C D_N VGND VNB VPB VPWR X
.ends

* Black-box entry subcircuit for sky130_fd_sc_hd__o21a_1 abstract view
.subckt sky130_fd_sc_hd__o21a_1 A1 A2 B1 VGND VNB VPB VPWR X
.ends

* Black-box entry subcircuit for sky130_fd_sc_hd__o21ai_2 abstract view
.subckt sky130_fd_sc_hd__o21ai_2 A1 A2 B1 VGND VNB VPB VPWR Y
.ends

* Black-box entry subcircuit for sky130_fd_sc_hd__o311a_1 abstract view
.subckt sky130_fd_sc_hd__o311a_1 A1 A2 A3 B1 C1 VGND VNB VPB VPWR X
.ends

* Black-box entry subcircuit for sky130_fd_sc_hd__or3_1 abstract view
.subckt sky130_fd_sc_hd__or3_1 A B C VGND VNB VPB VPWR X
.ends

* Black-box entry subcircuit for sky130_fd_sc_hd__dfrtp_4 abstract view
.subckt sky130_fd_sc_hd__dfrtp_4 CLK D RESET_B VGND VNB VPB VPWR Q
.ends

* Black-box entry subcircuit for sky130_fd_sc_hd__a211o_1 abstract view
.subckt sky130_fd_sc_hd__a211o_1 A1 A2 B1 C1 VGND VNB VPB VPWR X
.ends

* Black-box entry subcircuit for sky130_fd_sc_hd__clkinv_2 abstract view
.subckt sky130_fd_sc_hd__clkinv_2 A VGND VNB VPB VPWR Y
.ends

* Black-box entry subcircuit for sky130_fd_sc_hd__o21bai_1 abstract view
.subckt sky130_fd_sc_hd__o21bai_1 A1 A2 B1_N VGND VNB VPB VPWR Y
.ends

* Black-box entry subcircuit for sky130_fd_sc_hd__o211ai_2 abstract view
.subckt sky130_fd_sc_hd__o211ai_2 A1 A2 B1 C1 VGND VNB VPB VPWR Y
.ends

* Black-box entry subcircuit for sky130_fd_sc_hd__o221a_1 abstract view
.subckt sky130_fd_sc_hd__o221a_1 A1 A2 B1 B2 C1 VGND VNB VPB VPWR X
.ends

* Black-box entry subcircuit for sky130_fd_sc_hd__clkinvlp_4 abstract view
.subckt sky130_fd_sc_hd__clkinvlp_4 A VGND VNB VPB VPWR Y
.ends

* Black-box entry subcircuit for sky130_fd_sc_hd__a21bo_1 abstract view
.subckt sky130_fd_sc_hd__a21bo_1 A1 A2 B1_N VGND VNB VPB VPWR X
.ends

* Black-box entry subcircuit for sky130_fd_sc_hd__a311o_1 abstract view
.subckt sky130_fd_sc_hd__a311o_1 A1 A2 A3 B1 C1 VGND VNB VPB VPWR X
.ends

* Black-box entry subcircuit for sky130_fd_sc_hd__or2_2 abstract view
.subckt sky130_fd_sc_hd__or2_2 A B VGND VNB VPB VPWR X
.ends

* Black-box entry subcircuit for sky130_fd_sc_hd__nand2b_1 abstract view
.subckt sky130_fd_sc_hd__nand2b_1 A_N B VGND VNB VPB VPWR Y
.ends

* Black-box entry subcircuit for sky130_fd_sc_hd__bufinv_16 abstract view
.subckt sky130_fd_sc_hd__bufinv_16 A VGND VNB VPB VPWR Y
.ends

* Black-box entry subcircuit for sky130_fd_sc_hd__a221oi_1 abstract view
.subckt sky130_fd_sc_hd__a221oi_1 A1 A2 B1 B2 C1 VGND VNB VPB VPWR Y
.ends

* Black-box entry subcircuit for sky130_fd_sc_hd__clkbuf_16 abstract view
.subckt sky130_fd_sc_hd__clkbuf_16 A VGND VNB VPB VPWR X
.ends

* Black-box entry subcircuit for sky130_fd_sc_hd__a21o_1 abstract view
.subckt sky130_fd_sc_hd__a21o_1 A1 A2 B1 VGND VNB VPB VPWR X
.ends

* Black-box entry subcircuit for sky130_fd_sc_hd__nand4_2 abstract view
.subckt sky130_fd_sc_hd__nand4_2 A B C D VGND VNB VPB VPWR Y
.ends

* Black-box entry subcircuit for sky130_fd_sc_hd__a21oi_2 abstract view
.subckt sky130_fd_sc_hd__a21oi_2 A1 A2 B1 VGND VNB VPB VPWR Y
.ends

* Black-box entry subcircuit for sky130_fd_sc_hd__and4bb_4 abstract view
.subckt sky130_fd_sc_hd__and4bb_4 A_N B_N C D VGND VNB VPB VPWR X
.ends

* Black-box entry subcircuit for sky130_fd_sc_hd__dlymetal6s2s_1 abstract view
.subckt sky130_fd_sc_hd__dlymetal6s2s_1 A VGND VNB VPB VPWR X
.ends

* Black-box entry subcircuit for sky130_fd_sc_hd__o2bb2a_1 abstract view
.subckt sky130_fd_sc_hd__o2bb2a_1 A1_N A2_N B1 B2 VGND VNB VPB VPWR X
.ends

* Black-box entry subcircuit for sky130_fd_sc_hd__nor4_1 abstract view
.subckt sky130_fd_sc_hd__nor4_1 A B C D VGND VNB VPB VPWR Y
.ends

* Black-box entry subcircuit for sky130_fd_sc_hd__buf_1 abstract view
.subckt sky130_fd_sc_hd__buf_1 A VGND VNB VPB VPWR X
.ends

* Black-box entry subcircuit for sky130_fd_sc_hd__o211ai_1 abstract view
.subckt sky130_fd_sc_hd__o211ai_1 A1 A2 B1 C1 VGND VNB VPB VPWR Y
.ends

* Black-box entry subcircuit for sky130_fd_sc_hd__and2b_1 abstract view
.subckt sky130_fd_sc_hd__and2b_1 A_N B VGND VNB VPB VPWR X
.ends

* Black-box entry subcircuit for sky130_fd_sc_hd__o32a_1 abstract view
.subckt sky130_fd_sc_hd__o32a_1 A1 A2 A3 B1 B2 VGND VNB VPB VPWR X
.ends

* Black-box entry subcircuit for sky130_fd_sc_hd__a31oi_2 abstract view
.subckt sky130_fd_sc_hd__a31oi_2 A1 A2 A3 B1 VGND VNB VPB VPWR Y
.ends

* Black-box entry subcircuit for sky130_fd_sc_hd__or3b_2 abstract view
.subckt sky130_fd_sc_hd__or3b_2 A B C_N VGND VNB VPB VPWR X
.ends

* Black-box entry subcircuit for sky130_fd_sc_hd__nand3b_1 abstract view
.subckt sky130_fd_sc_hd__nand3b_1 A_N B C VGND VNB VPB VPWR Y
.ends

* Black-box entry subcircuit for sky130_fd_sc_hd__and3b_1 abstract view
.subckt sky130_fd_sc_hd__and3b_1 A_N B C VGND VNB VPB VPWR X
.ends

* Black-box entry subcircuit for sky130_fd_sc_hd__a32oi_1 abstract view
.subckt sky130_fd_sc_hd__a32oi_1 A1 A2 A3 B1 B2 VGND VNB VPB VPWR Y
.ends

* Black-box entry subcircuit for sky130_fd_sc_hd__and4bb_1 abstract view
.subckt sky130_fd_sc_hd__and4bb_1 A_N B_N C D VGND VNB VPB VPWR X
.ends

* Black-box entry subcircuit for sky130_fd_sc_hd__nand3_2 abstract view
.subckt sky130_fd_sc_hd__nand3_2 A B C VGND VNB VPB VPWR Y
.ends

* Black-box entry subcircuit for sky130_fd_sc_hd__nor4b_1 abstract view
.subckt sky130_fd_sc_hd__nor4b_1 A B C D_N VGND VNB VPB VPWR Y
.ends

* Black-box entry subcircuit for sky130_fd_sc_hd__a21boi_1 abstract view
.subckt sky130_fd_sc_hd__a21boi_1 A1 A2 B1_N VGND VNB VPB VPWR Y
.ends

* Black-box entry subcircuit for sky130_fd_sc_hd__buf_4 abstract view
.subckt sky130_fd_sc_hd__buf_4 A VGND VNB VPB VPWR X
.ends

* Black-box entry subcircuit for sky130_fd_sc_hd__or3_2 abstract view
.subckt sky130_fd_sc_hd__or3_2 A B C VGND VNB VPB VPWR X
.ends

* Black-box entry subcircuit for sky130_fd_sc_hd__nor3_1 abstract view
.subckt sky130_fd_sc_hd__nor3_1 A B C VGND VNB VPB VPWR Y
.ends

* Black-box entry subcircuit for sky130_fd_sc_hd__o31ai_2 abstract view
.subckt sky130_fd_sc_hd__o31ai_2 A1 A2 A3 B1 VGND VNB VPB VPWR Y
.ends

* Black-box entry subcircuit for sky130_fd_sc_hd__and4bb_2 abstract view
.subckt sky130_fd_sc_hd__and4bb_2 A_N B_N C D VGND VNB VPB VPWR X
.ends

* Black-box entry subcircuit for sky130_fd_sc_hd__nor2_2 abstract view
.subckt sky130_fd_sc_hd__nor2_2 A B VGND VNB VPB VPWR Y
.ends

* Black-box entry subcircuit for sky130_fd_sc_hd__or4_1 abstract view
.subckt sky130_fd_sc_hd__or4_1 A B C D VGND VNB VPB VPWR X
.ends

* Black-box entry subcircuit for sky130_fd_sc_hd__a21o_2 abstract view
.subckt sky130_fd_sc_hd__a21o_2 A1 A2 B1 VGND VNB VPB VPWR X
.ends

* Black-box entry subcircuit for sky130_fd_sc_hd__nor3b_1 abstract view
.subckt sky130_fd_sc_hd__nor3b_1 A B C_N VGND VNB VPB VPWR Y
.ends

* Black-box entry subcircuit for sky130_fd_sc_hd__o21ba_1 abstract view
.subckt sky130_fd_sc_hd__o21ba_1 A1 A2 B1_N VGND VNB VPB VPWR X
.ends

* Black-box entry subcircuit for sky130_fd_sc_hd__a21boi_2 abstract view
.subckt sky130_fd_sc_hd__a21boi_2 A1 A2 B1_N VGND VNB VPB VPWR Y
.ends

* Black-box entry subcircuit for sky130_fd_sc_hd__a21boi_4 abstract view
.subckt sky130_fd_sc_hd__a21boi_4 A1 A2 B1_N VGND VNB VPB VPWR Y
.ends

* Black-box entry subcircuit for sky130_fd_sc_hd__o31ai_1 abstract view
.subckt sky130_fd_sc_hd__o31ai_1 A1 A2 A3 B1 VGND VNB VPB VPWR Y
.ends

* Black-box entry subcircuit for sky130_fd_sc_hd__o2111ai_1 abstract view
.subckt sky130_fd_sc_hd__o2111ai_1 A1 A2 B1 C1 D1 VGND VNB VPB VPWR Y
.ends

* Black-box entry subcircuit for sky130_fd_sc_hd__o31ai_4 abstract view
.subckt sky130_fd_sc_hd__o31ai_4 A1 A2 A3 B1 VGND VNB VPB VPWR Y
.ends

* Black-box entry subcircuit for sky130_fd_sc_hd__a211o_2 abstract view
.subckt sky130_fd_sc_hd__a211o_2 A1 A2 B1 C1 VGND VNB VPB VPWR X
.ends

.subckt team_00 clk done en gpio_in[0] gpio_in[10] gpio_in[11] gpio_in[12] gpio_in[13]
+ gpio_in[14] gpio_in[15] gpio_in[16] gpio_in[17] gpio_in[18] gpio_in[19] gpio_in[1]
+ gpio_in[20] gpio_in[21] gpio_in[22] gpio_in[23] gpio_in[24] gpio_in[25] gpio_in[26]
+ gpio_in[27] gpio_in[28] gpio_in[29] gpio_in[2] gpio_in[30] gpio_in[31] gpio_in[32]
+ gpio_in[33] gpio_in[3] gpio_in[4] gpio_in[5] gpio_in[6] gpio_in[7] gpio_in[8] gpio_in[9]
+ gpio_oeb[0] gpio_oeb[10] gpio_oeb[11] gpio_oeb[12] gpio_oeb[13] gpio_oeb[14] gpio_oeb[15]
+ gpio_oeb[16] gpio_oeb[17] gpio_oeb[18] gpio_oeb[19] gpio_oeb[1] gpio_oeb[20] gpio_oeb[21]
+ gpio_oeb[22] gpio_oeb[23] gpio_oeb[24] gpio_oeb[25] gpio_oeb[26] gpio_oeb[27] gpio_oeb[28]
+ gpio_oeb[29] gpio_oeb[2] gpio_oeb[30] gpio_oeb[31] gpio_oeb[32] gpio_oeb[33] gpio_oeb[3]
+ gpio_oeb[4] gpio_oeb[5] gpio_oeb[6] gpio_oeb[7] gpio_oeb[8] gpio_oeb[9] gpio_out[0]
+ gpio_out[10] gpio_out[11] gpio_out[12] gpio_out[13] gpio_out[14] gpio_out[15] gpio_out[16]
+ gpio_out[17] gpio_out[18] gpio_out[19] gpio_out[1] gpio_out[20] gpio_out[21] gpio_out[22]
+ gpio_out[23] gpio_out[24] gpio_out[25] gpio_out[26] gpio_out[27] gpio_out[28] gpio_out[29]
+ gpio_out[2] gpio_out[30] gpio_out[31] gpio_out[32] gpio_out[33] gpio_out[3] gpio_out[4]
+ gpio_out[5] gpio_out[6] gpio_out[7] gpio_out[8] gpio_out[9] la_data_in[0] la_data_in[10]
+ la_data_in[11] la_data_in[12] la_data_in[13] la_data_in[14] la_data_in[15] la_data_in[16]
+ la_data_in[17] la_data_in[18] la_data_in[19] la_data_in[1] la_data_in[20] la_data_in[21]
+ la_data_in[22] la_data_in[23] la_data_in[24] la_data_in[25] la_data_in[26] la_data_in[27]
+ la_data_in[28] la_data_in[29] la_data_in[2] la_data_in[30] la_data_in[31] la_data_in[3]
+ la_data_in[4] la_data_in[5] la_data_in[6] la_data_in[7] la_data_in[8] la_data_in[9]
+ la_data_out[0] la_data_out[10] la_data_out[11] la_data_out[12] la_data_out[13] la_data_out[14]
+ la_data_out[15] la_data_out[16] la_data_out[17] la_data_out[18] la_data_out[19]
+ la_data_out[1] la_data_out[20] la_data_out[21] la_data_out[22] la_data_out[23] la_data_out[24]
+ la_data_out[25] la_data_out[26] la_data_out[27] la_data_out[28] la_data_out[29]
+ la_data_out[2] la_data_out[30] la_data_out[31] la_data_out[3] la_data_out[4] la_data_out[5]
+ la_data_out[6] la_data_out[7] la_data_out[8] la_data_out[9] la_oenb[0] la_oenb[10]
+ la_oenb[11] la_oenb[12] la_oenb[13] la_oenb[14] la_oenb[15] la_oenb[16] la_oenb[17]
+ la_oenb[18] la_oenb[19] la_oenb[1] la_oenb[20] la_oenb[21] la_oenb[22] la_oenb[23]
+ la_oenb[24] la_oenb[25] la_oenb[26] la_oenb[27] la_oenb[28] la_oenb[29] la_oenb[2]
+ la_oenb[30] la_oenb[31] la_oenb[3] la_oenb[4] la_oenb[5] la_oenb[6] la_oenb[7] la_oenb[8]
+ la_oenb[9] nrst prescaler[0] prescaler[10] prescaler[11] prescaler[12] prescaler[13]
+ prescaler[1] prescaler[2] prescaler[3] prescaler[4] prescaler[5] prescaler[6] prescaler[7]
+ prescaler[8] prescaler[9] vccd1 vssd1
XFILLER_52_29 vccd1 vssd1 vccd1 vssd1 sky130_ef_sc_hd__decap_40_12
XFILLER_45_225 vccd1 vssd1 vccd1 vssd1 sky130_ef_sc_hd__decap_40_12
XPHY_EDGE_ROW_37_Left_97 vssd1 vssd1 vccd1 vccd1 sky130_fd_sc_hd__decap_3
XFILLER_26_74 vssd1 vssd1 vccd1 vccd1 sky130_fd_sc_hd__fill_1
XFILLER_9_137 vccd1 vssd1 vccd1 vssd1 sky130_ef_sc_hd__decap_40_12
XFILLER_13_166 vssd1 vssd1 vccd1 vccd1 sky130_fd_sc_hd__fill_2
XFILLER_13_177 vssd1 vssd1 vccd1 vccd1 sky130_fd_sc_hd__fill_4
XFILLER_5_365 vssd1 vssd1 vccd1 vccd1 sky130_fd_sc_hd__fill_2
XTAP_TAPCELL_ROW_8_181 vssd1 vccd1 sky130_fd_sc_hd__tapvpwrvgnd_1
X_1270_ net103 net109 _0581_ net100 vssd1 vssd1 vccd1 vccd1 net72 sky130_fd_sc_hd__and4_1
XFILLER_51_217 vssd1 vssd1 vccd1 vccd1 sky130_fd_sc_hd__fill_4
X_0985_ _0010_ clk_divider.count_out\[7\] clk_divider.count_out\[6\] net114 vssd1
+ vssd1 vccd1 vccd1 _0376_ sky130_fd_sc_hd__o22a_1
XFILLER_59_328 vssd1 vssd1 vccd1 vccd1 sky130_fd_sc_hd__fill_4
XFILLER_59_317 vssd1 vssd1 vccd1 vccd1 sky130_fd_sc_hd__fill_1
Xfanout116 net48 vssd1 vssd1 vccd1 vccd1 net116 sky130_fd_sc_hd__clkbuf_2
Xfanout105 count\[2\] vssd1 vssd1 vccd1 vccd1 net105 sky130_fd_sc_hd__clkbuf_2
Xteam_00_137 vssd1 vssd1 vccd1 vccd1 team_00_137/HI la_data_out[11] sky130_fd_sc_hd__conb_1
Xteam_00_126 vssd1 vssd1 vccd1 vccd1 team_00_126/HI la_data_out[0] sky130_fd_sc_hd__conb_1
Xteam_00_148 vssd1 vssd1 vccd1 vccd1 team_00_148/HI la_data_out[22] sky130_fd_sc_hd__conb_1
XFILLER_2_357 vssd1 vssd1 vccd1 vccd1 sky130_fd_sc_hd__fill_4
XFILLER_12_65 vssd1 vssd1 vccd1 vccd1 sky130_fd_sc_hd__fill_4
XTAP_TAPCELL_ROW_5_162 vssd1 vccd1 sky130_fd_sc_hd__tapvpwrvgnd_1
XFILLER_18_225 vccd1 vssd1 vccd1 vssd1 sky130_ef_sc_hd__decap_40_12
XFILLER_41_261 vccd1 vssd1 vccd1 vssd1 sky130_ef_sc_hd__decap_40_12
X_0770_ _0159_ _0160_ _0158_ vssd1 vssd1 vccd1 vccd1 _0161_ sky130_fd_sc_hd__a21oi_1
XFILLER_56_309 vccd1 vssd1 vccd1 vssd1 sky130_ef_sc_hd__decap_40_12
X_1253_ _0594_ _0600_ vssd1 vssd1 vccd1 vccd1 _0601_ sky130_fd_sc_hd__nand2_1
XANTENNA__1174__A net98 vssd1 vssd1 vccd1 vccd1 sky130_fd_sc_hd__diode_2
XFILLER_49_361 vssd1 vssd1 vccd1 vccd1 sky130_fd_sc_hd__fill_8
X_1184_ _0538_ _0539_ _0540_ _0541_ _0542_ vssd1 vssd1 vccd1 vccd1 _0543_ sky130_fd_sc_hd__o2111a_1
XTAP_TAPCELL_ROW_19_253 vssd1 vccd1 sky130_fd_sc_hd__tapvpwrvgnd_1
XFILLER_32_261 vssd1 vssd1 vccd1 vccd1 sky130_fd_sc_hd__fill_2
XFILLER_32_250 vssd1 vssd1 vccd1 vccd1 sky130_fd_sc_hd__fill_2
X_0968_ clk_divider.count_out\[13\] _0353_ _0357_ clk_divider.count_out\[12\] vssd1
+ vssd1 vccd1 vccd1 _0359_ sky130_fd_sc_hd__o22a_1
X_0899_ _0278_ _0287_ vssd1 vssd1 vccd1 vccd1 _0290_ sky130_fd_sc_hd__nand2_1
XANTENNA__0700__B net15 vssd1 vssd1 vccd1 vccd1 sky130_fd_sc_hd__diode_2
XFILLER_59_169 vssd1 vssd1 vccd1 vccd1 sky130_fd_sc_hd__fill_2
XFILLER_59_147 vssd1 vssd1 vccd1 vccd1 sky130_fd_sc_hd__fill_2
XTAP_TAPCELL_ROW_2_143 vssd1 vccd1 sky130_fd_sc_hd__tapvpwrvgnd_1
XTAP_TAPCELL_ROW_25_289 vssd1 vccd1 sky130_fd_sc_hd__tapvpwrvgnd_1
XFILLER_23_261 vccd1 vssd1 vccd1 vssd1 sky130_ef_sc_hd__decap_40_12
XFILLER_15_206 vccd1 vssd1 vccd1 vssd1 sky130_ef_sc_hd__decap_40_12
XFILLER_23_42 vssd1 vssd1 vccd1 vccd1 sky130_fd_sc_hd__fill_2
XFILLER_2_165 vccd1 vssd1 vccd1 vssd1 sky130_ef_sc_hd__decap_40_12
XFILLER_2_121 vccd1 vssd1 vccd1 vssd1 sky130_ef_sc_hd__decap_40_12
XFILLER_48_83 vssd1 vssd1 vccd1 vccd1 sky130_fd_sc_hd__fill_1
XFILLER_0_57 vccd1 vssd1 vccd1 vssd1 sky130_ef_sc_hd__decap_40_12
XFILLER_17_9 vssd1 vssd1 vccd1 vccd1 sky130_fd_sc_hd__fill_8
X_0822_ net15 _0202_ vssd1 vssd1 vccd1 vccd1 _0213_ sky130_fd_sc_hd__xnor2_4
XFILLER_9_55 vssd1 vssd1 vccd1 vccd1 sky130_fd_sc_hd__fill_1
XFILLER_14_250 vssd1 vssd1 vccd1 vccd1 sky130_fd_sc_hd__fill_2
XTAP_TAPCELL_ROW_16_234 vssd1 vccd1 sky130_fd_sc_hd__tapvpwrvgnd_1
XFILLER_50_3 vccd1 vssd1 vccd1 vssd1 sky130_ef_sc_hd__decap_40_12
X_0684_ _0063_ _0065_ _0072_ vssd1 vssd1 vccd1 vccd1 _0075_ sky130_fd_sc_hd__and3_1
XPHY_EDGE_ROW_24_Left_84 vssd1 vssd1 vccd1 vccd1 sky130_fd_sc_hd__decap_3
X_0753_ net114 _0012_ _0143_ _0142_ vssd1 vssd1 vccd1 vccd1 _0144_ sky130_fd_sc_hd__o31a_1
XFILLER_56_139 vssd1 vssd1 vccd1 vccd1 sky130_fd_sc_hd__fill_1
X_1236_ net1 _0023_ _0024_ vssd1 vssd1 vccd1 vccd1 _0592_ sky130_fd_sc_hd__and3_1
X_1305_ clknet_2_1__leaf_clk clk_divider.next_count\[23\] net121 vssd1 vssd1 vccd1
+ vccd1 clk_divider.count_out\[23\] sky130_fd_sc_hd__dfrtp_2
XFILLER_52_345 vccd1 vssd1 vccd1 vssd1 sky130_ef_sc_hd__decap_40_12
XFILLER_52_301 vssd1 vssd1 vccd1 vccd1 sky130_fd_sc_hd__fill_4
X_1167_ net93 _0527_ _0528_ net102 vssd1 vssd1 vccd1 vccd1 _0529_ sky130_fd_sc_hd__a31o_1
X_1098_ clk_divider.count_out\[12\] net110 vssd1 vssd1 vccd1 vccd1 _0473_ sky130_fd_sc_hd__or2_1
XFILLER_12_209 vssd1 vssd1 vccd1 vccd1 sky130_fd_sc_hd__fill_2
XANTENNA_input2_X net2 vssd1 vssd1 vccd1 vccd1 sky130_fd_sc_hd__diode_2
XFILLER_55_161 vssd1 vssd1 vccd1 vccd1 sky130_fd_sc_hd__fill_4
XANTENNA__1097__A2 net90 vssd1 vssd1 vccd1 vccd1 sky130_fd_sc_hd__diode_2
XFILLER_34_85 vccd1 vssd1 vccd1 vssd1 sky130_ef_sc_hd__decap_40_12
XTAP_TAPCELL_ROW_13_215 vssd1 vccd1 sky130_fd_sc_hd__tapvpwrvgnd_1
XFILLER_7_279 vssd1 vssd1 vccd1 vccd1 sky130_fd_sc_hd__fill_1
XFILLER_59_93 vssd1 vssd1 vccd1 vccd1 sky130_fd_sc_hd__fill_1
XFILLER_15_6 vccd1 vssd1 vccd1 vssd1 sky130_ef_sc_hd__decap_40_12
XANTENNA__1190__D1 _0353_ vssd1 vssd1 vccd1 vccd1 sky130_fd_sc_hd__diode_2
XFILLER_53_109 vssd1 vssd1 vccd1 vccd1 sky130_fd_sc_hd__fill_2
X_1021_ _0341_ _0411_ _0340_ vssd1 vssd1 vccd1 vccd1 _0412_ sky130_fd_sc_hd__or3b_1
X_0805_ _0184_ _0185_ vssd1 vssd1 vccd1 vccd1 _0196_ sky130_fd_sc_hd__xnor2_2
X_0667_ _0055_ _0057_ vssd1 vssd1 vccd1 vccd1 _0058_ sky130_fd_sc_hd__nand2_1
X_0736_ _0090_ _0126_ vssd1 vssd1 vccd1 vccd1 _0127_ sky130_fd_sc_hd__xnor2_1
XANTENNA__1362__A net118 vssd1 vssd1 vccd1 vccd1 sky130_fd_sc_hd__diode_2
XFILLER_44_109 vssd1 vssd1 vccd1 vccd1 sky130_fd_sc_hd__fill_4
XFILLER_29_128 vssd1 vssd1 vccd1 vccd1 sky130_fd_sc_hd__fill_1
XTAP_TAPCELL_ROW_27_307 vssd1 vccd1 sky130_fd_sc_hd__tapvpwrvgnd_1
X_1219_ _0349_ clk_divider.next_count\[14\] vssd1 vssd1 vccd1 vccd1 _0578_ sky130_fd_sc_hd__xor2_1
XFILLER_25_334 vssd1 vssd1 vccd1 vccd1 sky130_fd_sc_hd__fill_2
XFILLER_52_197 vccd1 vssd1 vccd1 vssd1 sky130_ef_sc_hd__decap_40_12
XFILLER_52_153 vccd1 vssd1 vccd1 vssd1 sky130_ef_sc_hd__decap_40_12
XFILLER_40_337 vssd1 vssd1 vccd1 vccd1 sky130_fd_sc_hd__fill_4
XFILLER_4_249 vssd1 vssd1 vccd1 vccd1 sky130_fd_sc_hd__fill_2
XFILLER_29_30 vssd1 vssd1 vccd1 vccd1 sky130_fd_sc_hd__fill_1
XFILLER_45_51 vssd1 vssd1 vccd1 vccd1 sky130_fd_sc_hd__fill_4
XFILLER_35_109 vssd1 vssd1 vccd1 vccd1 sky130_fd_sc_hd__fill_2
XFILLER_28_194 vssd1 vssd1 vccd1 vccd1 sky130_fd_sc_hd__fill_2
XANTENNA_input18_A prescaler[7] vssd1 vssd1 vccd1 vccd1 sky130_fd_sc_hd__diode_2
XFILLER_16_301 vssd1 vssd1 vccd1 vccd1 sky130_fd_sc_hd__fill_4
XFILLER_16_345 vccd1 vssd1 vccd1 vssd1 sky130_ef_sc_hd__decap_40_12
XANTENNA__0616__A net14 vssd1 vssd1 vccd1 vccd1 sky130_fd_sc_hd__diode_2
XTAP_TAPCELL_ROW_41_398 vssd1 vccd1 sky130_fd_sc_hd__tapvpwrvgnd_1
XFILLER_31_337 vssd1 vssd1 vccd1 vccd1 sky130_fd_sc_hd__fill_8
XFILLER_3_293 vccd1 vssd1 vccd1 vssd1 sky130_ef_sc_hd__decap_40_12
XANTENNA__0753__A1 net114 vssd1 vssd1 vccd1 vccd1 sky130_fd_sc_hd__diode_2
XFILLER_13_3 vccd1 vssd1 vccd1 vssd1 sky130_ef_sc_hd__decap_40_12
XFILLER_19_183 vssd1 vssd1 vccd1 vccd1 sky130_fd_sc_hd__fill_2
X_1004_ _0298_ _0324_ _0326_ _0327_ vssd1 vssd1 vccd1 vccd1 _0395_ sky130_fd_sc_hd__a211oi_2
XFILLER_34_197 vssd1 vssd1 vccd1 vccd1 sky130_fd_sc_hd__fill_4
XFILLER_34_153 vssd1 vssd1 vccd1 vccd1 sky130_fd_sc_hd__fill_4
XFILLER_22_304 vssd1 vssd1 vccd1 vccd1 sky130_fd_sc_hd__fill_4
XFILLER_22_359 vssd1 vssd1 vccd1 vccd1 sky130_fd_sc_hd__fill_1
XFILLER_57_223 vssd1 vssd1 vccd1 vccd1 sky130_fd_sc_hd__fill_1
X_0719_ _0100_ _0108_ vssd1 vssd1 vccd1 vccd1 _0110_ sky130_fd_sc_hd__xnor2_2
XPHY_EDGE_ROW_11_Left_71 vssd1 vssd1 vccd1 vccd1 sky130_fd_sc_hd__decap_3
XFILLER_40_123 vssd1 vssd1 vccd1 vccd1 sky130_fd_sc_hd__fill_1
XFILLER_31_53 vssd1 vssd1 vccd1 vccd1 sky130_fd_sc_hd__fill_2
XFILLER_31_31 vssd1 vssd1 vccd1 vccd1 sky130_fd_sc_hd__fill_8
XFILLER_13_337 vccd1 vssd1 vccd1 vssd1 sky130_ef_sc_hd__decap_40_12
XFILLER_15_43 vccd1 vssd1 vccd1 vssd1 sky130_ef_sc_hd__decap_40_12
XFILLER_15_76 vssd1 vssd1 vccd1 vccd1 sky130_fd_sc_hd__fill_2
Xoutput53 net53 vssd1 vssd1 vccd1 vccd1 gpio_oeb[7] sky130_fd_sc_hd__buf_2
Xoutput31 net31 vssd1 vssd1 vccd1 vccd1 gpio_oeb[18] sky130_fd_sc_hd__buf_2
Xoutput42 net42 vssd1 vssd1 vccd1 vccd1 gpio_oeb[28] sky130_fd_sc_hd__buf_2
Xoutput75 net75 vssd1 vssd1 vccd1 vccd1 gpio_out[27] sky130_fd_sc_hd__buf_2
XFILLER_31_97 vccd1 vssd1 vccd1 vssd1 sky130_ef_sc_hd__decap_40_12
Xoutput64 net64 vssd1 vssd1 vccd1 vccd1 gpio_out[17] sky130_fd_sc_hd__buf_2
XFILLER_56_83 vssd1 vssd1 vccd1 vccd1 sky130_fd_sc_hd__fill_1
XFILLER_48_289 vccd1 vssd1 vccd1 vssd1 sky130_ef_sc_hd__decap_40_12
XFILLER_48_245 vssd1 vssd1 vccd1 vccd1 sky130_fd_sc_hd__fill_4
Xoutput86 net86 vssd1 vssd1 vccd1 vccd1 gpio_out[6] sky130_fd_sc_hd__buf_2
XFILLER_31_167 vssd1 vssd1 vccd1 vccd1 sky130_fd_sc_hd__fill_1
XFILLER_16_186 vssd1 vssd1 vccd1 vccd1 sky130_fd_sc_hd__fill_8
XFILLER_8_363 vssd1 vssd1 vccd1 vccd1 sky130_fd_sc_hd__fill_1
XFILLER_39_223 vssd1 vssd1 vccd1 vccd1 sky130_fd_sc_hd__fill_1
XFILLER_39_201 vssd1 vssd1 vccd1 vccd1 sky130_fd_sc_hd__fill_4
XFILLER_10_307 vssd1 vssd1 vccd1 vccd1 sky130_fd_sc_hd__fill_1
XFILLER_22_101 vssd1 vssd1 vccd1 vccd1 sky130_fd_sc_hd__fill_2
XFILLER_22_178 vssd1 vssd1 vccd1 vccd1 sky130_fd_sc_hd__fill_2
XFILLER_53_281 vccd1 vssd1 vccd1 vssd1 sky130_ef_sc_hd__decap_40_12
XFILLER_45_237 vccd1 vssd1 vccd1 vssd1 sky130_ef_sc_hd__decap_40_12
XFILLER_26_31 vssd1 vssd1 vccd1 vccd1 sky130_fd_sc_hd__fill_1
XFILLER_9_105 vssd1 vssd1 vccd1 vccd1 sky130_fd_sc_hd__fill_4
XFILLER_13_134 vccd1 vssd1 vccd1 vssd1 sky130_ef_sc_hd__decap_40_12
XTAP_TAPCELL_ROW_51_460 vssd1 vccd1 sky130_fd_sc_hd__tapvpwrvgnd_1
XFILLER_42_85 vccd1 vssd1 vccd1 vssd1 sky130_ef_sc_hd__decap_40_12
XFILLER_42_41 vssd1 vssd1 vccd1 vccd1 sky130_fd_sc_hd__fill_4
XFILLER_5_333 vssd1 vssd1 vccd1 vccd1 sky130_fd_sc_hd__fill_2
XFILLER_9_149 vccd1 vssd1 vccd1 vssd1 sky130_ef_sc_hd__decap_40_12
XFILLER_3_57 vccd1 vssd1 vccd1 vssd1 sky130_ef_sc_hd__decap_40_12
XTAP_TAPCELL_ROW_8_182 vssd1 vccd1 sky130_fd_sc_hd__tapvpwrvgnd_1
X_0984_ _0010_ clk_divider.count_out\[7\] clk_divider.count_out\[6\] net114 vssd1
+ vssd1 vccd1 vccd1 _0375_ sky130_fd_sc_hd__a22o_1
XFILLER_8_193 vssd1 vssd1 vccd1 vccd1 sky130_fd_sc_hd__fill_2
XFILLER_59_307 vssd1 vssd1 vccd1 vccd1 sky130_fd_sc_hd__fill_1
Xteam_00_149 vssd1 vssd1 vccd1 vccd1 team_00_149/HI la_data_out[23] sky130_fd_sc_hd__conb_1
Xteam_00_127 vssd1 vssd1 vccd1 vccd1 team_00_127/HI la_data_out[1] sky130_fd_sc_hd__conb_1
Xfanout117 net118 vssd1 vssd1 vccd1 vccd1 net117 sky130_fd_sc_hd__buf_2
Xfanout106 count\[1\] vssd1 vssd1 vccd1 vccd1 net106 sky130_fd_sc_hd__buf_2
Xteam_00_138 vssd1 vssd1 vccd1 vccd1 team_00_138/HI la_data_out[12] sky130_fd_sc_hd__conb_1
XANTENNA__1370__A net118 vssd1 vssd1 vccd1 vccd1 sky130_fd_sc_hd__diode_2
XFILLER_50_251 vssd1 vssd1 vccd1 vccd1 sky130_fd_sc_hd__fill_1
XFILLER_35_281 vssd1 vssd1 vccd1 vccd1 sky130_fd_sc_hd__fill_8
XANTENNA__0714__A net8 vssd1 vssd1 vccd1 vccd1 sky130_fd_sc_hd__diode_2
XFILLER_10_137 vssd1 vssd1 vccd1 vccd1 sky130_fd_sc_hd__fill_2
XFILLER_33_207 vccd1 vssd1 vccd1 vssd1 sky130_ef_sc_hd__decap_40_12
XTAP_TAPCELL_ROW_5_163 vssd1 vccd1 sky130_fd_sc_hd__tapvpwrvgnd_1
XFILLER_18_237 vssd1 vssd1 vccd1 vccd1 sky130_fd_sc_hd__fill_1
XFILLER_53_51 vssd1 vssd1 vccd1 vccd1 sky130_fd_sc_hd__fill_4
XFILLER_41_273 vssd1 vssd1 vccd1 vccd1 sky130_fd_sc_hd__fill_4
XTAP_TAPCELL_ROW_11_198 vssd1 vccd1 sky130_fd_sc_hd__tapvpwrvgnd_1
X_1252_ net104 _0581_ vssd1 vssd1 vccd1 vccd1 _0600_ sky130_fd_sc_hd__xor2_2
X_1183_ _0419_ _0421_ _0422_ _0423_ vssd1 vssd1 vccd1 vccd1 _0542_ sky130_fd_sc_hd__a22oi_1
XFILLER_17_281 vssd1 vssd1 vccd1 vccd1 sky130_fd_sc_hd__fill_2
XTAP_TAPCELL_ROW_19_254 vssd1 vccd1 sky130_fd_sc_hd__tapvpwrvgnd_1
XPHY_EDGE_ROW_49_Left_109 vssd1 vssd1 vccd1 vccd1 sky130_fd_sc_hd__decap_3
XANTENNA__1015__C_N net2 vssd1 vssd1 vccd1 vccd1 sky130_fd_sc_hd__diode_2
X_0967_ clk_divider.count_out\[12\] _0357_ vssd1 vssd1 vccd1 vccd1 _0358_ sky130_fd_sc_hd__nand2_1
XFILLER_59_126 vssd1 vssd1 vccd1 vccd1 sky130_fd_sc_hd__fill_2
XFILLER_58_29 vccd1 vssd1 vccd1 vssd1 sky130_ef_sc_hd__decap_40_12
XPHY_EDGE_ROW_58_Left_118 vssd1 vssd1 vccd1 vccd1 sky130_fd_sc_hd__decap_3