*SPEF "ieee 1481-1999"
*DESIGN "fpgacell"
*DATE "23:49:10 Saturday March 07, 2026"
*VENDOR "The OpenROAD Project"
*PROGRAM "OpenROAD"
*VERSION "edf00dff99f6c40d67a30c0e22a8191c5d2ed9d6"
*DESIGN_FLOW "NAME_SCOPE LOCAL" "PIN_CAP NONE"
*DIVIDER /
*DELIMITER :
*BUS_DELIMITER []
*T_UNIT 1 NS
*C_UNIT 1 PF
*R_UNIT 1 OHM
*L_UNIT 1 HENRY

*NAME_MAP
*1 CBeast_in[0]
*2 CBeast_in[10]
*3 CBeast_in[11]
*4 CBeast_in[12]
*5 CBeast_in[13]
*6 CBeast_in[14]
*7 CBeast_in[15]
*8 CBeast_in[1]
*9 CBeast_in[2]
*10 CBeast_in[3]
*11 CBeast_in[4]
*12 CBeast_in[5]
*13 CBeast_in[6]
*14 CBeast_in[7]
*15 CBeast_in[8]
*16 CBeast_in[9]
*17 CBeast_out[0]
*18 CBeast_out[10]
*19 CBeast_out[11]
*20 CBeast_out[12]
*21 CBeast_out[13]
*22 CBeast_out[14]
*23 CBeast_out[15]
*24 CBeast_out[1]
*25 CBeast_out[2]
*26 CBeast_out[3]
*27 CBeast_out[4]
*28 CBeast_out[5]
*29 CBeast_out[6]
*30 CBeast_out[7]
*31 CBeast_out[8]
*32 CBeast_out[9]
*33 CBnorth_in[0]
*34 CBnorth_in[10]
*35 CBnorth_in[11]
*36 CBnorth_in[12]
*37 CBnorth_in[13]
*38 CBnorth_in[14]
*39 CBnorth_in[15]
*40 CBnorth_in[1]
*41 CBnorth_in[2]
*42 CBnorth_in[3]
*43 CBnorth_in[4]
*44 CBnorth_in[5]
*45 CBnorth_in[6]
*46 CBnorth_in[7]
*47 CBnorth_in[8]
*48 CBnorth_in[9]
*49 CBnorth_out[0]
*50 CBnorth_out[10]
*51 CBnorth_out[11]
*52 CBnorth_out[12]
*53 CBnorth_out[13]
*54 CBnorth_out[14]
*55 CBnorth_out[15]
*56 CBnorth_out[1]
*57 CBnorth_out[2]
*58 CBnorth_out[3]
*59 CBnorth_out[4]
*60 CBnorth_out[5]
*61 CBnorth_out[6]
*62 CBnorth_out[7]
*63 CBnorth_out[8]
*64 CBnorth_out[9]
*65 SBsouth_in[0]
*66 SBsouth_in[10]
*67 SBsouth_in[11]
*68 SBsouth_in[12]
*69 SBsouth_in[13]
*70 SBsouth_in[14]
*71 SBsouth_in[15]
*72 SBsouth_in[1]
*73 SBsouth_in[2]
*74 SBsouth_in[3]
*75 SBsouth_in[4]
*76 SBsouth_in[5]
*77 SBsouth_in[6]
*78 SBsouth_in[7]
*79 SBsouth_in[8]
*80 SBsouth_in[9]
*81 SBsouth_out[0]
*82 SBsouth_out[10]
*83 SBsouth_out[11]
*84 SBsouth_out[12]
*85 SBsouth_out[13]
*86 SBsouth_out[14]
*87 SBsouth_out[15]
*88 SBsouth_out[1]
*89 SBsouth_out[2]
*90 SBsouth_out[3]
*91 SBsouth_out[4]
*92 SBsouth_out[5]
*93 SBsouth_out[6]
*94 SBsouth_out[7]
*95 SBsouth_out[8]
*96 SBsouth_out[9]
*97 SBwest_in[0]
*98 SBwest_in[10]
*99 SBwest_in[11]
*100 SBwest_in[12]
*101 SBwest_in[13]
*102 SBwest_in[14]
*103 SBwest_in[15]
*104 SBwest_in[1]
*105 SBwest_in[2]
*106 SBwest_in[3]
*107 SBwest_in[4]
*108 SBwest_in[5]
*109 SBwest_in[6]
*110 SBwest_in[7]
*111 SBwest_in[8]
*112 SBwest_in[9]
*113 SBwest_out[0]
*114 SBwest_out[10]
*115 SBwest_out[11]
*116 SBwest_out[12]
*117 SBwest_out[13]
*118 SBwest_out[14]
*119 SBwest_out[15]
*120 SBwest_out[1]
*121 SBwest_out[2]
*122 SBwest_out[3]
*123 SBwest_out[4]
*124 SBwest_out[5]
*125 SBwest_out[6]
*126 SBwest_out[7]
*127 SBwest_out[8]
*128 SBwest_out[9]
*129 clk
*130 config_data_in
*131 config_data_out
*132 config_en
*133 le_clk
*134 le_en
*135 le_nrst
*136 nrst
*139 CB_0\.config_dataA\[0\]
*140 CB_0\.config_dataA\[10\]
*141 CB_0\.config_dataA\[11\]
*142 CB_0\.config_dataA\[12\]
*143 CB_0\.config_dataA\[13\]
*144 CB_0\.config_dataA\[14\]
*145 CB_0\.config_dataA\[15\]
*146 CB_0\.config_dataA\[16\]
*147 CB_0\.config_dataA\[17\]
*148 CB_0\.config_dataA\[18\]
*149 CB_0\.config_dataA\[19\]
*150 CB_0\.config_dataA\[1\]
*151 CB_0\.config_dataA\[20\]
*152 CB_0\.config_dataA\[21\]
*153 CB_0\.config_dataA\[22\]
*154 CB_0\.config_dataA\[23\]
*155 CB_0\.config_dataA\[24\]
*156 CB_0\.config_dataA\[2\]
*157 CB_0\.config_dataA\[3\]
*158 CB_0\.config_dataA\[4\]
*159 CB_0\.config_dataA\[5\]
*160 CB_0\.config_dataA\[6\]
*161 CB_0\.config_dataA\[7\]
*162 CB_0\.config_dataA\[8\]
*163 CB_0\.config_dataA\[9\]
*164 CB_0\.config_dataB\[0\]
*165 CB_0\.config_dataB\[10\]
*166 CB_0\.config_dataB\[11\]
*167 CB_0\.config_dataB\[12\]
*168 CB_0\.config_dataB\[13\]
*169 CB_0\.config_dataB\[14\]
*170 CB_0\.config_dataB\[15\]
*171 CB_0\.config_dataB\[16\]
*172 CB_0\.config_dataB\[17\]
*173 CB_0\.config_dataB\[18\]
*174 CB_0\.config_dataB\[19\]
*175 CB_0\.config_dataB\[1\]
*176 CB_0\.config_dataB\[20\]
*177 CB_0\.config_dataB\[21\]
*178 CB_0\.config_dataB\[22\]
*179 CB_0\.config_dataB\[23\]
*180 CB_0\.config_dataB\[24\]
*181 CB_0\.config_dataB\[2\]
*182 CB_0\.config_dataB\[3\]
*183 CB_0\.config_dataB\[4\]
*184 CB_0\.config_dataB\[5\]
*185 CB_0\.config_dataB\[6\]
*186 CB_0\.config_dataB\[7\]
*187 CB_0\.config_dataB\[8\]
*188 CB_0\.config_dataB\[9\]
*189 CB_0\.config_data_inA
*190 CB_0\.le_outA
*191 CB_0\.le_outB
*192 CB_1\.config_dataA\[0\]
*193 CB_1\.config_dataA\[10\]
*194 CB_1\.config_dataA\[11\]
*195 CB_1\.config_dataA\[12\]
*196 CB_1\.config_dataA\[13\]
*197 CB_1\.config_dataA\[14\]
*198 CB_1\.config_dataA\[15\]
*199 CB_1\.config_dataA\[16\]
*200 CB_1\.config_dataA\[17\]
*201 CB_1\.config_dataA\[18\]
*202 CB_1\.config_dataA\[19\]
*203 CB_1\.config_dataA\[1\]
*204 CB_1\.config_dataA\[20\]
*205 CB_1\.config_dataA\[21\]
*206 CB_1\.config_dataA\[22\]
*207 CB_1\.config_dataA\[23\]
*208 CB_1\.config_dataA\[24\]
*209 CB_1\.config_dataA\[2\]
*210 CB_1\.config_dataA\[3\]
*211 CB_1\.config_dataA\[4\]
*212 CB_1\.config_dataA\[5\]
*213 CB_1\.config_dataA\[6\]
*214 CB_1\.config_dataA\[7\]
*215 CB_1\.config_dataA\[8\]
*216 CB_1\.config_dataA\[9\]
*217 CB_1\.config_dataB\[0\]
*218 CB_1\.config_dataB\[10\]
*219 CB_1\.config_dataB\[11\]
*220 CB_1\.config_dataB\[12\]
*221 CB_1\.config_dataB\[13\]
*222 CB_1\.config_dataB\[14\]
*223 CB_1\.config_dataB\[15\]
*224 CB_1\.config_dataB\[16\]
*225 CB_1\.config_dataB\[17\]
*226 CB_1\.config_dataB\[18\]
*227 CB_1\.config_dataB\[19\]
*228 CB_1\.config_dataB\[1\]
*229 CB_1\.config_dataB\[20\]
*230 CB_1\.config_dataB\[21\]
*231 CB_1\.config_dataB\[22\]
*232 CB_1\.config_dataB\[23\]
*233 CB_1\.config_dataB\[24\]
*234 CB_1\.config_dataB\[2\]
*235 CB_1\.config_dataB\[3\]
*236 CB_1\.config_dataB\[4\]
*237 CB_1\.config_dataB\[5\]
*238 CB_1\.config_dataB\[6\]
*239 CB_1\.config_dataB\[7\]
*240 CB_1\.config_dataB\[8\]
*241 CB_1\.config_dataB\[9\]
*242 CB_1\.le_outA
*243 CB_1\.le_outB
*244 LEI0\.config_data\[0\]
*245 LEI0\.config_data\[10\]
*246 LEI0\.config_data\[11\]
*247 LEI0\.config_data\[12\]
*248 LEI0\.config_data\[13\]
*249 LEI0\.config_data\[14\]
*250 LEI0\.config_data\[15\]
*251 LEI0\.config_data\[16\]
*252 LEI0\.config_data\[17\]
*253 LEI0\.config_data\[18\]
*254 LEI0\.config_data\[19\]
*255 LEI0\.config_data\[1\]
*256 LEI0\.config_data\[20\]
*257 LEI0\.config_data\[21\]
*258 LEI0\.config_data\[22\]
*259 LEI0\.config_data\[23\]
*260 LEI0\.config_data\[24\]
*261 LEI0\.config_data\[25\]
*262 LEI0\.config_data\[26\]
*263 LEI0\.config_data\[27\]
*264 LEI0\.config_data\[28\]
*265 LEI0\.config_data\[29\]
*266 LEI0\.config_data\[2\]
*267 LEI0\.config_data\[30\]
*268 LEI0\.config_data\[31\]
*269 LEI0\.config_data\[32\]
*270 LEI0\.config_data\[33\]
*271 LEI0\.config_data\[34\]
*272 LEI0\.config_data\[35\]
*273 LEI0\.config_data\[36\]
*274 LEI0\.config_data\[37\]
*275 LEI0\.config_data\[38\]
*276 LEI0\.config_data\[39\]
*277 LEI0\.config_data\[3\]
*278 LEI0\.config_data\[40\]
*279 LEI0\.config_data\[41\]
*280 LEI0\.config_data\[42\]
*281 LEI0\.config_data\[43\]
*282 LEI0\.config_data\[44\]
*283 LEI0\.config_data\[45\]
*284 LEI0\.config_data\[46\]
*285 LEI0\.config_data\[4\]
*286 LEI0\.config_data\[5\]
*287 LEI0\.config_data\[6\]
*288 LEI0\.config_data\[7\]
*289 LEI0\.config_data\[8\]
*290 LEI0\.config_data\[9\]
*291 LE_0A\.config_data\[0\]
*292 LE_0A\.config_data\[10\]
*293 LE_0A\.config_data\[11\]
*294 LE_0A\.config_data\[12\]
*295 LE_0A\.config_data\[13\]
*296 LE_0A\.config_data\[14\]
*297 LE_0A\.config_data\[15\]
*298 LE_0A\.config_data\[16\]
*299 LE_0A\.config_data\[1\]
*300 LE_0A\.config_data\[2\]
*301 LE_0A\.config_data\[3\]
*302 LE_0A\.config_data\[4\]
*303 LE_0A\.config_data\[5\]
*304 LE_0A\.config_data\[6\]
*305 LE_0A\.config_data\[7\]
*306 LE_0A\.config_data\[8\]
*307 LE_0A\.config_data\[9\]
*308 LE_0A\.dff0_out
*309 LE_0A\.dff1_out
*310 LE_0A\.dff_out
*311 LE_0A\.edge_mode
*312 LE_0A\.reset_mode
*313 LE_0A\.reset_val
*314 LE_0A\.sel_clk
*315 LE_0A\.sel_reset
*316 LE_0B\.config_data\[0\]
*317 LE_0B\.config_data\[10\]
*318 LE_0B\.config_data\[11\]
*319 LE_0B\.config_data\[12\]
*320 LE_0B\.config_data\[13\]
*321 LE_0B\.config_data\[14\]
*322 LE_0B\.config_data\[15\]
*323 LE_0B\.config_data\[16\]
*324 LE_0B\.config_data\[1\]
*325 LE_0B\.config_data\[2\]
*326 LE_0B\.config_data\[3\]
*327 LE_0B\.config_data\[4\]
*328 LE_0B\.config_data\[5\]
*329 LE_0B\.config_data\[6\]
*330 LE_0B\.config_data\[7\]
*331 LE_0B\.config_data\[8\]
*332 LE_0B\.config_data\[9\]
*333 LE_0B\.dff0_out
*334 LE_0B\.dff1_out
*335 LE_0B\.dff_out
*336 LE_0B\.edge_mode
*337 LE_0B\.reset_mode
*338 LE_0B\.reset_val
*339 LE_0B\.sel_clk
*340 LE_0B\.sel_reset
*341 LE_1A\.config_data\[0\]
*342 LE_1A\.config_data\[10\]
*343 LE_1A\.config_data\[11\]
*344 LE_1A\.config_data\[12\]
*345 LE_1A\.config_data\[13\]
*346 LE_1A\.config_data\[14\]
*347 LE_1A\.config_data\[15\]
*348 LE_1A\.config_data\[16\]
*349 LE_1A\.config_data\[1\]
*350 LE_1A\.config_data\[2\]
*351 LE_1A\.config_data\[3\]
*352 LE_1A\.config_data\[4\]
*353 LE_1A\.config_data\[5\]
*354 LE_1A\.config_data\[6\]
*355 LE_1A\.config_data\[7\]
*356 LE_1A\.config_data\[8\]
*357 LE_1A\.config_data\[9\]
*358 LE_1A\.dff0_out
*359 LE_1A\.dff1_out
*360 LE_1A\.dff_out
*361 LE_1A\.edge_mode
*362 LE_1A\.reset_mode
*363 LE_1A\.reset_val
*364 LE_1A\.sel_clk
*365 LE_1A\.sel_reset
*366 LE_1B\.config_data\[0\]
*367 LE_1B\.config_data\[10\]
*368 LE_1B\.config_data\[11\]
*369 LE_1B\.config_data\[12\]
*370 LE_1B\.config_data\[13\]
*371 LE_1B\.config_data\[14\]
*372 LE_1B\.config_data\[15\]
*373 LE_1B\.config_data\[16\]
*374 LE_1B\.config_data\[1\]
*375 LE_1B\.config_data\[2\]
*376 LE_1B\.config_data\[3\]
*377 LE_1B\.config_data\[4\]
*378 LE_1B\.config_data\[5\]
*379 LE_1B\.config_data\[6\]
*380 LE_1B\.config_data\[7\]
*381 LE_1B\.config_data\[8\]
*382 LE_1B\.config_data\[9\]
*383 LE_1B\.dff0_out
*384 LE_1B\.dff1_out
*385 LE_1B\.dff_out
*386 LE_1B\.edge_mode
*387 LE_1B\.reset_mode
*388 LE_1B\.reset_val
*389 LE_1B\.sel_clk
*390 LE_1B\.sel_reset
*391 SB0\.route_sel\[0\]
*392 SB0\.route_sel\[100\]
*393 SB0\.route_sel\[101\]
*394 SB0\.route_sel\[102\]
*395 SB0\.route_sel\[103\]
*396 SB0\.route_sel\[104\]
*397 SB0\.route_sel\[105\]
*398 SB0\.route_sel\[106\]
*399 SB0\.route_sel\[107\]
*400 SB0\.route_sel\[108\]
*401 SB0\.route_sel\[109\]
*402 SB0\.route_sel\[10\]
*403 SB0\.route_sel\[110\]
*404 SB0\.route_sel\[111\]
*405 SB0\.route_sel\[112\]
*406 SB0\.route_sel\[113\]
*407 SB0\.route_sel\[114\]
*408 SB0\.route_sel\[115\]
*409 SB0\.route_sel\[116\]
*410 SB0\.route_sel\[117\]
*411 SB0\.route_sel\[118\]
*412 SB0\.route_sel\[119\]
*413 SB0\.route_sel\[11\]
*414 SB0\.route_sel\[120\]
*415 SB0\.route_sel\[121\]
*416 SB0\.route_sel\[122\]
*417 SB0\.route_sel\[123\]
*418 SB0\.route_sel\[124\]
*419 SB0\.route_sel\[125\]
*420 SB0\.route_sel\[126\]
*421 SB0\.route_sel\[12\]
*422 SB0\.route_sel\[13\]
*423 SB0\.route_sel\[14\]
*424 SB0\.route_sel\[15\]
*425 SB0\.route_sel\[16\]
*426 SB0\.route_sel\[17\]
*427 SB0\.route_sel\[18\]
*428 SB0\.route_sel\[19\]
*429 SB0\.route_sel\[1\]
*430 SB0\.route_sel\[20\]
*431 SB0\.route_sel\[21\]
*432 SB0\.route_sel\[22\]
*433 SB0\.route_sel\[23\]
*434 SB0\.route_sel\[24\]
*435 SB0\.route_sel\[25\]
*436 SB0\.route_sel\[26\]
*437 SB0\.route_sel\[27\]
*438 SB0\.route_sel\[28\]
*439 SB0\.route_sel\[29\]
*440 SB0\.route_sel\[2\]
*441 SB0\.route_sel\[30\]
*442 SB0\.route_sel\[31\]
*443 SB0\.route_sel\[32\]
*444 SB0\.route_sel\[33\]
*445 SB0\.route_sel\[34\]
*446 SB0\.route_sel\[35\]
*447 SB0\.route_sel\[36\]
*448 SB0\.route_sel\[37\]
*449 SB0\.route_sel\[38\]
*450 SB0\.route_sel\[39\]
*451 SB0\.route_sel\[3\]
*452 SB0\.route_sel\[40\]
*453 SB0\.route_sel\[41\]
*454 SB0\.route_sel\[42\]
*455 SB0\.route_sel\[43\]
*456 SB0\.route_sel\[44\]
*457 SB0\.route_sel\[45\]
*458 SB0\.route_sel\[46\]
*459 SB0\.route_sel\[47\]
*460 SB0\.route_sel\[48\]
*461 SB0\.route_sel\[49\]
*462 SB0\.route_sel\[4\]
*463 SB0\.route_sel\[50\]
*464 SB0\.route_sel\[51\]
*465 SB0\.route_sel\[52\]
*466 SB0\.route_sel\[53\]
*467 SB0\.route_sel\[54\]
*468 SB0\.route_sel\[55\]
*469 SB0\.route_sel\[56\]
*470 SB0\.route_sel\[57\]
*471 SB0\.route_sel\[58\]
*472 SB0\.route_sel\[59\]
*473 SB0\.route_sel\[5\]
*474 SB0\.route_sel\[60\]
*475 SB0\.route_sel\[61\]
*476 SB0\.route_sel\[62\]
*477 SB0\.route_sel\[63\]
*478 SB0\.route_sel\[64\]
*479 SB0\.route_sel\[65\]
*480 SB0\.route_sel\[66\]
*481 SB0\.route_sel\[67\]
*482 SB0\.route_sel\[68\]
*483 SB0\.route_sel\[69\]
*484 SB0\.route_sel\[6\]
*485 SB0\.route_sel\[70\]
*486 SB0\.route_sel\[71\]
*487 SB0\.route_sel\[72\]
*488 SB0\.route_sel\[73\]
*489 SB0\.route_sel\[74\]
*490 SB0\.route_sel\[75\]
*491 SB0\.route_sel\[76\]
*492 SB0\.route_sel\[77\]
*493 SB0\.route_sel\[78\]
*494 SB0\.route_sel\[79\]
*495 SB0\.route_sel\[7\]
*496 SB0\.route_sel\[80\]
*497 SB0\.route_sel\[81\]
*498 SB0\.route_sel\[82\]
*499 SB0\.route_sel\[83\]
*500 SB0\.route_sel\[84\]
*501 SB0\.route_sel\[85\]
*502 SB0\.route_sel\[86\]
*503 SB0\.route_sel\[87\]
*504 SB0\.route_sel\[88\]
*505 SB0\.route_sel\[89\]
*506 SB0\.route_sel\[8\]
*507 SB0\.route_sel\[90\]
*508 SB0\.route_sel\[91\]
*509 SB0\.route_sel\[92\]
*510 SB0\.route_sel\[93\]
*511 SB0\.route_sel\[94\]
*512 SB0\.route_sel\[95\]
*513 SB0\.route_sel\[96\]
*514 SB0\.route_sel\[97\]
*515 SB0\.route_sel\[98\]
*516 SB0\.route_sel\[99\]
*517 SB0\.route_sel\[9\]
*518 _0000_
*519 _0001_
*520 _0002_
*521 _0003_
*522 _0004_
*523 _0005_
*524 _0006_
*525 _0007_
*526 _0008_
*527 _0009_
*528 _0010_
*529 _0011_
*530 _0012_
*531 _0013_
*532 _0014_
*533 _0015_
*534 _0016_
*535 _0017_
*536 _0018_
*537 _0019_
*538 _0020_
*539 _0021_
*540 _0022_
*541 _0023_
*542 _0024_
*543 _0025_
*544 _0026_
*545 _0027_
*546 _0028_
*547 _0029_
*548 _0030_
*549 _0031_
*550 _0032_
*551 _0033_
*552 _0034_
*553 _0035_
*554 _0036_
*555 _0037_
*556 _0038_
*557 _0039_
*558 _0040_
*559 _0041_
*560 _0042_
*561 _0043_
*562 _0044_
*563 _0045_
*564 _0046_
*565 _0047_
*566 _0048_
*567 _0049_
*568 _0050_
*569 _0051_
*570 _0052_
*571 _0053_
*572 _0054_
*573 _0055_
*574 _0056_
*575 _0057_
*576 _0058_
*577 _0059_
*578 _0060_
*579 _0061_
*580 _0062_
*581 _0063_
*582 _0064_
*583 _0065_
*584 _0066_
*585 _0067_
*586 _0068_
*587 _0069_
*588 _0070_
*589 _0071_
*590 _0072_
*591 _0073_
*592 _0074_
*593 _0075_
*594 _0076_
*595 _0077_
*596 _0078_
*597 _0079_
*598 _0080_
*599 _0081_
*600 _0082_
*601 _0083_
*602 _0084_
*603 _0085_
*604 _0086_
*605 _0087_
*606 _0088_
*607 _0089_
*608 _0090_
*609 _0091_
*610 _0092_
*611 _0093_
*612 _0094_
*613 _0095_
*614 _0096_
*615 _0097_
*616 _0098_
*617 _0099_
*618 _0100_
*619 _0101_
*620 _0102_
*621 _0103_
*622 _0104_
*623 _0105_
*624 _0106_
*625 _0107_
*626 _0108_
*627 _0109_
*628 _0110_
*629 _0111_
*630 _0112_
*631 _0113_
*632 _0114_
*633 _0115_
*634 _0116_
*635 _0117_
*636 _0118_
*637 _0119_
*638 _0120_
*639 _0121_
*640 _0122_
*641 _0123_
*642 _0124_
*643 _0125_
*644 _0126_
*645 _0127_
*646 _0128_
*647 _0129_
*648 _0130_
*649 _0131_
*650 _0132_
*651 _0133_
*652 _0134_
*653 _0135_
*654 _0136_
*655 _0137_
*656 _0138_
*657 _0139_
*658 _0140_
*659 _0141_
*660 _0142_
*661 _0143_
*662 _0144_
*663 _0145_
*664 _0146_
*665 _0147_
*666 _0148_
*667 _0149_
*668 _0150_
*669 _0151_
*670 _0152_
*671 _0153_
*672 _0154_
*673 _0155_
*674 _0156_
*675 _0157_
*676 _0158_
*677 _0159_
*678 _0160_
*679 _0161_
*680 _0162_
*681 _0163_
*682 _0164_
*683 _0165_
*684 _0166_
*685 _0167_
*686 _0168_
*687 _0169_
*688 _0170_
*689 _0171_
*690 _0172_
*691 _0173_
*692 _0174_
*693 _0175_
*694 _0176_
*695 _0177_
*696 _0178_
*697 _0179_
*698 _0180_
*699 _0181_
*700 _0182_
*701 _0183_
*702 _0184_
*703 _0185_
*704 _0186_
*705 _0187_
*706 _0188_
*707 _0189_
*708 _0190_
*709 _0191_
*710 _0192_
*711 _0193_
*712 _0194_
*713 _0195_
*714 _0196_
*715 _0197_
*716 _0198_
*717 _0199_
*718 _0200_
*719 _0201_
*720 _0202_
*721 _0203_
*722 _0204_
*723 _0205_
*724 _0206_
*725 _0207_
*726 _0208_
*727 _0209_
*728 _0210_
*729 _0211_
*730 _0212_
*731 _0213_
*732 _0214_
*733 _0215_
*734 _0216_
*735 _0217_
*736 _0218_
*737 _0219_
*738 _0220_
*739 _0221_
*740 _0222_
*741 _0223_
*742 _0224_
*743 _0225_
*744 _0226_
*745 _0227_
*746 _0228_
*747 _0229_
*748 _0230_
*749 _0231_
*750 _0232_
*751 _0233_
*752 _0234_
*753 _0235_
*754 _0236_
*755 _0237_
*756 _0238_
*757 _0239_
*758 _0240_
*759 _0241_
*760 _0242_
*761 _0243_
*762 _0244_
*763 _0245_
*764 _0246_
*765 _0247_
*766 _0248_
*767 _0249_
*768 _0250_
*769 _0251_
*770 _0252_
*771 _0253_
*772 _0254_
*773 _0255_
*774 _0256_
*775 _0257_
*776 _0258_
*777 _0259_
*778 _0260_
*779 _0261_
*780 _0262_
*781 _0263_
*782 _0264_
*783 _0265_
*784 _0266_
*785 _0267_
*786 _0268_
*787 _0269_
*788 _0270_
*789 _0271_
*790 _0272_
*791 _0273_
*792 _0274_
*793 _0275_
*794 _0276_
*795 _0277_
*796 _0278_
*797 _0279_
*798 _0280_
*799 _0281_
*800 _0282_
*801 _0283_
*802 _0284_
*803 _0285_
*804 _0286_
*805 _0287_
*806 _0288_
*807 _0289_
*808 _0290_
*809 _0291_
*810 _0292_
*811 _0293_
*812 _0294_
*813 _0295_
*814 _0296_
*815 _0297_
*816 _0298_
*817 _0299_
*818 _0300_
*819 _0301_
*820 _0302_
*821 _0303_
*822 _0304_
*823 _0305_
*824 _0306_
*825 _0307_
*826 _0308_
*827 _0309_
*828 _0310_
*829 _0311_
*830 _0312_
*831 _0313_
*832 _0314_
*833 _0315_
*834 _0316_
*835 _0317_
*836 _0318_
*837 _0319_
*838 _0320_
*839 _0321_
*840 _0322_
*841 _0323_
*842 _0324_
*843 _0325_
*844 _0326_
*845 _0327_
*846 _0328_
*847 _0329_
*848 _0330_
*849 _0331_
*850 _0332_
*851 _0333_
*852 _0334_
*853 _0335_
*854 _0336_
*855 _0337_
*856 _0338_
*857 _0339_
*858 _0340_
*859 _0341_
*860 _0342_
*861 _0343_
*862 _0344_
*863 _0345_
*864 _0346_
*865 _0347_
*866 _0348_
*867 _0349_
*868 _0350_
*869 _0351_
*870 _0352_
*871 _0353_
*872 _0354_
*873 _0355_
*874 _0356_
*875 _0357_
*876 _0358_
*877 _0359_
*878 _0360_
*879 _0361_
*880 _0362_
*881 _0363_
*882 _0364_
*883 _0365_
*884 _0366_
*885 _0367_
*886 _0368_
*887 _0369_
*888 _0370_
*889 _0371_
*890 _0372_
*891 _0373_
*892 _0374_
*893 _0375_
*894 _0376_
*895 _0377_
*896 _0378_
*897 _0379_
*898 _0380_
*899 _0381_
*900 _0382_
*901 _0383_
*902 _0384_
*903 _0385_
*904 _0386_
*905 _0387_
*906 _0388_
*907 _0389_
*908 _0390_
*909 _0391_
*910 _0392_
*911 _0393_
*912 _0394_
*913 _0395_
*914 _0396_
*915 _0397_
*916 _0398_
*917 _0399_
*918 _0400_
*919 _0401_
*920 _0402_
*921 _0403_
*922 _0404_
*923 _0405_
*924 _0406_
*925 _0407_
*926 _0408_
*927 _0409_
*928 _0410_
*929 _0411_
*930 _0412_
*931 _0413_
*932 _0414_
*933 _0415_
*934 _0416_
*935 _0417_
*936 _0418_
*937 _0419_
*938 _0420_
*939 _0421_
*940 _0422_
*941 _0423_
*942 _0424_
*943 _0425_
*944 _0426_
*945 _0427_
*946 _0428_
*947 _0429_
*948 _0430_
*949 _0431_
*950 _0432_
*951 _0433_
*952 _0434_
*953 _0435_
*954 _0436_
*955 _0437_
*956 _0438_
*957 _0439_
*958 _0440_
*959 _0441_
*960 _0442_
*961 _0443_
*962 _0444_
*963 _0445_
*964 _0446_
*965 _0447_
*966 _0448_
*967 _0449_
*968 _0450_
*969 _0451_
*970 _0452_
*971 _0453_
*972 _0454_
*973 _0455_
*974 _0456_
*975 _0457_
*976 _0458_
*977 _0459_
*978 _0460_
*979 _0461_
*980 _0462_
*981 _0463_
*982 _0464_
*983 _0465_
*984 _0466_
*985 _0467_
*986 _0468_
*987 _0469_
*988 _0470_
*989 _0471_
*990 _0472_
*991 _0473_
*992 _0474_
*993 _0475_
*994 _0476_
*995 _0477_
*996 _0478_
*997 _0479_
*998 _0480_
*999 _0481_
*1000 _0482_
*1001 _0483_
*1002 _0484_
*1003 _0485_
*1004 _0486_
*1005 _0487_
*1006 _0488_
*1007 _0489_
*1008 _0490_
*1009 _0491_
*1010 _0492_
*1011 _0493_
*1012 _0494_
*1013 _0495_
*1014 _0496_
*1015 _0497_
*1016 _0498_
*1017 _0499_
*1018 _0500_
*1019 _0501_
*1020 _0502_
*1021 _0503_
*1022 _0504_
*1023 _0505_
*1024 _0506_
*1025 _0507_
*1026 _0508_
*1027 _0509_
*1028 _0510_
*1029 _0511_
*1030 _0512_
*1031 _0513_
*1032 _0514_
*1033 _0515_
*1034 _0516_
*1035 _0517_
*1036 _0518_
*1037 _0519_
*1038 _0520_
*1039 _0521_
*1040 _0522_
*1041 _0523_
*1042 _0524_
*1043 _0525_
*1044 _0526_
*1045 _0527_
*1046 _0528_
*1047 _0529_
*1048 _0530_
*1049 _0531_
*1050 _0532_
*1051 _0533_
*1052 _0534_
*1053 _0535_
*1054 _0536_
*1055 _0537_
*1056 _0538_
*1057 _0539_
*1058 _0540_
*1059 _0541_
*1060 _0542_
*1061 _0543_
*1062 _0544_
*1063 _0545_
*1064 _0546_
*1065 _0547_
*1066 _0548_
*1067 _0549_
*1068 _0550_
*1069 _0551_
*1070 _0552_
*1071 _0553_
*1072 _0554_
*1073 _0555_
*1074 _0556_
*1075 _0557_
*1076 _0558_
*1077 _0559_
*1078 _0560_
*1079 _0561_
*1080 _0562_
*1081 _0563_
*1082 _0564_
*1083 _0565_
*1084 _0566_
*1085 _0567_
*1086 _0568_
*1087 _0569_
*1088 _0570_
*1089 _0571_
*1090 _0572_
*1091 _0573_
*1092 _0574_
*1093 _0575_
*1094 _0576_
*1095 _0577_
*1096 _0578_
*1097 _0579_
*1098 _0580_
*1099 _0581_
*1100 _0582_
*1101 _0583_
*1102 _0584_
*1103 _0585_
*1104 _0586_
*1105 _0587_
*1106 _0588_
*1107 _0589_
*1108 _0590_
*1109 _0591_
*1110 _0592_
*1111 _0593_
*1112 _0594_
*1113 _0595_
*1114 _0596_
*1115 _0597_
*1116 _0598_
*1117 _0599_
*1118 _0600_
*1119 _0601_
*1120 _0602_
*1121 _0603_
*1122 _0604_
*1123 _0605_
*1124 _0606_
*1125 _0607_
*1126 _0608_
*1127 _0609_
*1128 _0610_
*1129 _0611_
*1130 _0612_
*1131 _0613_
*1132 _0614_
*1133 _0615_
*1134 _0616_
*1135 _0617_
*1136 _0618_
*1137 _0619_
*1138 _0620_
*1139 _0621_
*1140 _0622_
*1141 _0623_
*1142 _0624_
*1143 _0625_
*1144 _0626_
*1145 _0627_
*1146 _0628_
*1147 _0629_
*1148 _0630_
*1149 _0631_
*1150 _0632_
*1151 _0633_
*1152 _0634_
*1153 _0635_
*1154 _0636_
*1155 _0637_
*1156 _0638_
*1157 _0639_
*1158 _0640_
*1159 _0641_
*1160 _0642_
*1161 _0643_
*1162 _0644_
*1163 _0645_
*1164 _0646_
*1165 _0647_
*1166 _0648_
*1167 _0649_
*1168 _0650_
*1169 _0651_
*1170 _0652_
*1171 _0653_
*1172 _0654_
*1173 _0655_
*1174 _0656_
*1175 _0657_
*1176 _0658_
*1177 _0659_
*1178 _0660_
*1179 _0661_
*1180 _0662_
*1181 _0663_
*1182 _0664_
*1183 _0665_
*1184 _0666_
*1185 _0667_
*1186 _0668_
*1187 _0669_
*1188 _0670_
*1189 _0671_
*1190 _0672_
*1191 _0673_
*1192 _0674_
*1193 _0675_
*1194 _0676_
*1195 _0677_
*1196 _0678_
*1197 _0679_
*1198 _0680_
*1199 _0681_
*1200 _0682_
*1201 _0683_
*1202 _0684_
*1203 _0685_
*1204 _0686_
*1205 _0687_
*1206 _0688_
*1207 _0689_
*1208 _0690_
*1209 _0691_
*1210 _0692_
*1211 _0693_
*1212 _0694_
*1213 _0695_
*1214 _0696_
*1215 _0697_
*1216 _0698_
*1217 _0699_
*1218 _0700_
*1219 _0701_
*1220 _0702_
*1221 _0703_
*1222 _0704_
*1223 _0705_
*1224 _0706_
*1225 _0707_
*1226 _0708_
*1227 _0709_
*1228 _0710_
*1229 _0711_
*1230 _0712_
*1231 _0713_
*1232 _0714_
*1233 _0715_
*1234 _0716_
*1235 _0717_
*1236 _0718_
*1237 _0719_
*1238 _0720_
*1239 _0721_
*1240 _0722_
*1241 _0723_
*1242 _0724_
*1243 _0725_
*1244 _0726_
*1245 _0727_
*1246 _0728_
*1247 _0729_
*1248 _0730_
*1249 _0731_
*1250 _0732_
*1251 _0733_
*1252 _0734_
*1253 _0735_
*1254 _0736_
*1255 _0737_
*1256 _0738_
*1257 _0739_
*1258 _0740_
*1259 _0741_
*1260 _0742_
*1261 _0743_
*1262 _0744_
*1263 _0745_
*1264 _0746_
*1265 _0747_
*1266 _0748_
*1267 _0749_
*1268 _0750_
*1269 _0751_
*1270 _0752_
*1271 _0753_
*1272 _0754_
*1273 _0755_
*1274 _0756_
*1275 _0757_
*1276 _0758_
*1277 _0759_
*1278 _0760_
*1279 _0761_
*1280 _0762_
*1281 _0763_
*1282 _0764_
*1283 _0765_
*1284 _0766_
*1285 _0767_
*1286 _0768_
*1287 _0769_
*1288 _0770_
*1289 _0771_
*1290 _0772_
*1291 _0773_
*1292 _0774_
*1293 _0775_
*1294 _0776_
*1295 _0777_
*1296 _0778_
*1297 _0779_
*1298 _0780_
*1299 _0781_
*1300 _0782_
*1301 _0783_
*1302 _0784_
*1303 _0785_
*1304 _0786_
*1305 _0787_
*1306 _0788_
*1307 _0789_
*1308 _0790_
*1309 _0791_
*1310 _0792_
*1311 _0793_
*1312 _0794_
*1313 _0795_
*1314 _0796_
*1315 _0797_
*1316 _0798_
*1317 _0799_
*1318 _0800_
*1319 _0801_
*1320 _0802_
*1321 _0803_
*1322 _0804_
*1323 _0805_
*1324 _0806_
*1325 _0807_
*1326 _0808_
*1327 _0809_
*1328 _0810_
*1329 _0811_
*1330 _0812_
*1331 _0813_
*1332 _0814_
*1333 _0815_
*1334 _0816_
*1335 _0817_
*1336 _0818_
*1337 _0819_
*1338 _0820_
*1339 _0821_
*1340 _0822_
*1341 _0823_
*1342 _0824_
*1343 _0825_
*1344 _0826_
*1345 _0827_
*1346 _0828_
*1347 _0829_
*1348 _0830_
*1349 _0831_
*1350 _0832_
*1351 _0833_
*1352 _0834_
*1353 _0835_
*1354 _0836_
*1355 _0837_
*1356 _0838_
*1357 _0839_
*1358 _0840_
*1359 _0841_
*1360 _0842_
*1361 _0843_
*1362 _0844_
*1363 _0845_
*1364 _0846_
*1365 _0847_
*1366 _0848_
*1367 _0849_
*1368 _0850_
*1369 _0851_
*1370 _0852_
*1371 _0853_
*1372 _0854_
*1373 _0855_
*1374 _0856_
*1375 _0857_
*1376 _0858_
*1377 _0859_
*1378 _0860_
*1379 _0861_
*1380 _0862_
*1381 _0863_
*1382 _0864_
*1383 _0865_
*1384 _0866_
*1385 _0867_
*1386 _0868_
*1387 _0869_
*1388 _0870_
*1389 _0871_
*1390 _0872_
*1391 _0873_
*1392 _0874_
*1393 _0875_
*1394 _0876_
*1395 _0877_
*1396 _0878_
*1397 _0879_
*1398 _0880_
*1399 _0881_
*1400 _0882_
*1401 _0883_
*1402 _0884_
*1403 _0885_
*1404 _0886_
*1405 _0887_
*1406 _0888_
*1407 _0889_
*1408 _0890_
*1409 _0891_
*1410 _0892_
*1411 _0893_
*1412 _0894_
*1413 _0895_
*1414 _0896_
*1415 _0897_
*1416 _0898_
*1417 _0899_
*1418 _0900_
*1419 _0901_
*1420 _0902_
*1421 _0903_
*1422 _0904_
*1423 _0905_
*1424 _0906_
*1425 _0907_
*1426 _0908_
*1427 _0909_
*1428 _0910_
*1429 _0911_
*1430 _0912_
*1431 _0913_
*1432 _0914_
*1433 _0915_
*1434 _0916_
*1435 _0917_
*1436 _0918_
*1437 _0919_
*1438 _0920_
*1439 _0921_
*1440 _0922_
*1441 _0923_
*1442 _0924_
*1443 _0925_
*1444 _0926_
*1445 _0927_
*1446 _0928_
*1447 _0929_
*1448 _0930_
*1449 _0931_
*1450 _0932_
*1451 _0933_
*1452 _0934_
*1453 _0935_
*1454 _0936_
*1455 _0937_
*1456 _0938_
*1457 _0939_
*1458 _0940_
*1459 _0941_
*1460 _0942_
*1461 _0943_
*1462 _0944_
*1463 _0945_
*1464 _0946_
*1465 _0947_
*1466 _0948_
*1467 _0949_
*1468 _0950_
*1469 _0951_
*1470 _0952_
*1471 _0953_
*1472 _0954_
*1473 _0955_
*1474 _0956_
*1475 _0957_
*1476 _0958_
*1477 _0959_
*1478 _0960_
*1479 _0961_
*1480 _0962_
*1481 _0963_
*1482 _0964_
*1483 _0965_
*1484 _0966_
*1485 _0967_
*1486 _0968_
*1487 _0969_
*1488 _0970_
*1489 _0971_
*1490 _0972_
*1491 _0973_
*1492 _0974_
*1493 _0975_
*1494 _0976_
*1495 _0977_
*1496 _0978_
*1497 _0979_
*1498 _0980_
*1499 _0981_
*1500 _0982_
*1501 _0983_
*1502 _0984_
*1503 _0985_
*1504 _0986_
*1505 _0987_
*1506 _0988_
*1507 _0989_
*1508 _0990_
*1509 _0991_
*1510 _0992_
*1511 _0993_
*1512 _0994_
*1513 _0995_
*1514 _0996_
*1515 _0997_
*1516 _0998_
*1517 _0999_
*1518 _1000_
*1519 _1001_
*1520 _1002_
*1521 _1003_
*1522 _1004_
*1523 _1005_
*1524 _1006_
*1525 _1007_
*1526 _1008_
*1527 _1009_
*1528 _1010_
*1529 _1011_
*1530 _1012_
*1531 _1013_
*1532 _1014_
*1533 _1015_
*1534 _1016_
*1535 _1017_
*1536 _1018_
*1537 _1019_
*1538 _1020_
*1539 _1021_
*1540 _1022_
*1541 _1023_
*1542 _1024_
*1543 _1025_
*1544 _1026_
*1545 _1027_
*1546 _1028_
*1547 _1029_
*1548 _1030_
*1549 _1031_
*1550 _1032_
*1551 _1033_
*1552 _1034_
*1553 _1035_
*1554 _1036_
*1555 _1037_
*1556 _1038_
*1557 _1039_
*1558 _1040_
*1559 _1041_
*1560 _1042_
*1561 _1043_
*1562 _1044_
*1563 _1045_
*1564 _1046_
*1565 _1047_
*1566 _1048_
*1567 _1049_
*1568 _1050_
*1569 _1051_
*1570 _1052_
*1571 _1053_
*1572 _1054_
*1573 _1055_
*1574 _1056_
*1575 _1057_
*1576 _1058_
*1577 _1059_
*1578 _1060_
*1579 _1061_
*1580 _1062_
*1581 _1063_
*1582 _1064_
*1583 _1065_
*1584 _1066_
*1585 _1067_
*1586 _1068_
*1587 _1069_
*1588 _1070_
*1589 _1071_
*1590 _1072_
*1591 _1073_
*1592 _1074_
*1593 _1075_
*1594 _1076_
*1595 _1077_
*1596 _1078_
*1597 _1079_
*1598 _1080_
*1599 _1081_
*1600 _1082_
*1601 _1083_
*1602 _1084_
*1603 _1085_
*1604 _1086_
*1605 _1087_
*1606 _1088_
*1607 _1089_
*1608 _1090_
*1609 _1091_
*1610 _1092_
*1611 _1093_
*1612 _1094_
*1613 _1095_
*1614 _1096_
*1615 _1097_
*1616 _1098_
*1617 _1099_
*1618 _1100_
*1619 _1101_
*1620 _1102_
*1621 _1103_
*1622 _1104_
*1623 _1105_
*1624 _1106_
*1625 _1107_
*1626 _1108_
*1627 _1109_
*1628 _1110_
*1629 _1111_
*1630 _1112_
*1631 _1113_
*1632 _1114_
*1633 _1115_
*1634 _1116_
*1635 _1117_
*1636 _1118_
*1637 _1119_
*1638 _1120_
*1639 _1121_
*1640 _1122_
*1641 _1123_
*1642 _1124_
*1643 _1125_
*1644 _1126_
*1645 _1127_
*1646 _1128_
*1647 _1129_
*1648 _1130_
*1649 _1131_
*1650 _1132_
*1651 _1133_
*1652 _1134_
*1653 _1135_
*1654 _1136_
*1655 _1137_
*1656 _1138_
*1657 _1139_
*1658 _1140_
*1659 _1141_
*1660 _1142_
*1661 _1143_
*1662 _1144_
*1663 _1145_
*1664 _1146_
*1665 _1147_
*1666 _1148_
*1667 _1149_
*1668 _1150_
*1669 _1151_
*1670 _1152_
*1671 _1153_
*1672 _1154_
*1673 _1155_
*1674 _1156_
*1675 _1157_
*1676 _1158_
*1677 _1159_
*1678 _1160_
*1679 _1161_
*1680 _1162_
*1681 _1163_
*1682 _1164_
*1683 _1165_
*1684 _1166_
*1685 _1167_
*1686 _1168_
*1687 _1169_
*1688 _1170_
*1689 _1171_
*1690 _1172_
*1691 _1173_
*1692 _1174_
*1693 _1175_
*1694 _1176_
*1695 _1177_
*1696 _1178_
*1697 _1179_
*1698 _1180_
*1699 _1181_
*1700 _1182_
*1701 _1183_
*1702 _1184_
*1703 _1185_
*1704 _1186_
*1705 _1187_
*1706 _1188_
*1707 _1189_
*1708 _1190_
*1709 _1191_
*1710 _1192_
*1711 _1193_
*1712 _1194_
*1713 _1195_
*1714 _1196_
*1715 _1197_
*1716 _1198_
*1717 _1199_
*1718 _1200_
*1719 _1201_
*1720 _1202_
*1721 _1203_
*1722 _1204_
*1723 _1205_
*1724 _1206_
*1725 _1207_
*1726 _1208_
*1727 _1209_
*1728 _1210_
*1729 _1211_
*1730 _1212_
*1731 _1213_
*1732 _1214_
*1733 _1215_
*1734 _1216_
*1735 _1217_
*1736 _1218_
*1737 _1219_
*1738 _1220_
*1739 _1221_
*1740 _1222_
*1741 _1223_
*1742 _1224_
*1743 _1225_
*1744 _1226_
*1745 _1227_
*1746 _1228_
*1747 _1229_
*1748 _1230_
*1749 _1231_
*1750 _1232_
*1751 _1233_
*1752 _1234_
*1753 _1235_
*1754 _1236_
*1755 _1237_
*1756 _1238_
*1757 _1239_
*1758 _1240_
*1759 _1241_
*1760 _1242_
*1761 _1243_
*1762 _1244_
*1763 _1245_
*1764 _1246_
*1765 _1247_
*1766 _1248_
*1767 _1249_
*1768 _1250_
*1769 _1251_
*1770 _1252_
*1771 _1253_
*1772 _1254_
*1773 _1255_
*1774 _1256_
*1775 _1257_
*1776 _1258_
*1777 _1259_
*1778 _1260_
*1779 _1261_
*1780 _1262_
*1781 _1263_
*1782 _1264_
*1783 _1265_
*1784 _1266_
*1785 _1267_
*1786 _1268_
*1787 _1269_
*1788 _1270_
*1789 _1271_
*1790 _1272_
*1791 _1273_
*1792 _1274_
*1793 _1275_
*1794 _1276_
*1795 _1277_
*1796 _1278_
*1797 _1279_
*1798 _1280_
*1799 _1281_
*1800 _1282_
*1801 _1283_
*1802 _1284_
*1803 _1285_
*1804 _1286_
*1805 _1287_
*1806 _1288_
*1807 _1289_
*1808 _1290_
*1809 _1291_
*1810 _1292_
*1811 _1293_
*1812 _1294_
*1813 _1295_
*1814 _1296_
*1815 _1297_
*1816 _1298_
*1817 _1299_
*1818 _1300_
*1819 _1301_
*1820 _1302_
*1821 _1303_
*1822 _1304_
*1823 _1305_
*1824 _1306_
*1825 _1307_
*1826 _1308_
*1827 _1309_
*1828 _1310_
*1829 _1311_
*1830 _1312_
*1831 _1313_
*1832 _1314_
*1833 _1315_
*1834 _1316_
*1835 _1317_
*1836 _1318_
*1837 _1319_
*1838 _1320_
*1839 _1321_
*1840 _1322_
*1841 _1323_
*1842 _1324_
*1843 _1325_