*SPEF "ieee 1481-1999"
*DESIGN "team_06"
*DATE "23:20:42 Friday March 06, 2026"
*VENDOR "The OpenROAD Project"
*PROGRAM "OpenROAD"
*VERSION "edf00dff99f6c40d67a30c0e22a8191c5d2ed9d6"
*DESIGN_FLOW "NAME_SCOPE LOCAL" "PIN_CAP NONE"
*DIVIDER /
*DELIMITER :
*BUS_DELIMITER []
*T_UNIT 1 NS
*C_UNIT 1 PF
*R_UNIT 1 OHM
*L_UNIT 1 HENRY

*NAME_MAP
*1 clk
*2 en
*3 gpio_in[0]
*4 gpio_in[10]
*5 gpio_in[11]
*6 gpio_in[12]
*7 gpio_in[13]
*8 gpio_in[14]
*9 gpio_in[15]
*10 gpio_in[16]
*11 gpio_in[17]
*12 gpio_in[18]
*13 gpio_in[19]
*14 gpio_in[1]
*15 gpio_in[20]
*16 gpio_in[21]
*17 gpio_in[22]
*18 gpio_in[23]
*19 gpio_in[24]
*20 gpio_in[25]
*21 gpio_in[26]
*22 gpio_in[27]
*23 gpio_in[28]
*24 gpio_in[29]
*25 gpio_in[2]
*26 gpio_in[30]
*27 gpio_in[31]
*28 gpio_in[32]
*29 gpio_in[33]
*30 gpio_in[3]
*31 gpio_in[4]
*32 gpio_in[5]
*33 gpio_in[6]
*34 gpio_in[7]
*35 gpio_in[8]
*36 gpio_in[9]
*37 net154
*38 net178
*39 net179
*40 net180
*41 net181
*42 net182
*43 net183
*44 net184
*45 net185
*46 net186
*47 net187
*48 net155
*49 net188
*50 net189
*51 net190
*52 net191
*53 net192
*54 net193
*55 net194
*56 net195
*57 net196
*58 net158
*59 net156
*60 net159
*61 net160
*62 net161
*63 net162
*64 net157
*65 net172
*66 net173
*67 net174
*68 net175
*69 net176
*70 net177
*71 net163
*72 gpio_out[10]
*73 gpio_out[11]
*74 gpio_out[12]
*75 gpio_out[13]
*76 gpio_out[14]
*77 gpio_out[15]
*78 gpio_out[16]
*79 gpio_out[17]
*80 gpio_out[18]
*81 gpio_out[19]
*82 net164
*83 gpio_out[20]
*84 gpio_out[21]
*85 gpio_out[22]
*86 gpio_out[23]
*87 gpio_out[24]
*88 gpio_out[25]
*89 gpio_out[26]
*90 gpio_out[27]
*91 gpio_out[28]
*92 net167
*93 net165
*94 net168
*95 net169
*96 net170
*97 net171
*98 net166
*99 gpio_out[4]
*100 gpio_out[5]
*101 gpio_out[6]
*102 gpio_out[7]
*103 gpio_out[8]
*104 gpio_out[9]
*105 nrst
*108 CALC_INST\.complete
*109 CALC_INST\.equal_input
*110 CALC_INST\.gencon_inst\.ALU_finish
*111 CALC_INST\.gencon_inst\.ALU_in1\[0\]
*112 CALC_INST\.gencon_inst\.ALU_in1\[10\]
*113 CALC_INST\.gencon_inst\.ALU_in1\[11\]
*114 CALC_INST\.gencon_inst\.ALU_in1\[12\]
*115 CALC_INST\.gencon_inst\.ALU_in1\[13\]
*116 CALC_INST\.gencon_inst\.ALU_in1\[14\]
*117 CALC_INST\.gencon_inst\.ALU_in1\[15\]
*118 CALC_INST\.gencon_inst\.ALU_in1\[1\]
*119 CALC_INST\.gencon_inst\.ALU_in1\[2\]
*120 CALC_INST\.gencon_inst\.ALU_in1\[3\]
*121 CALC_INST\.gencon_inst\.ALU_in1\[4\]
*122 CALC_INST\.gencon_inst\.ALU_in1\[5\]
*123 CALC_INST\.gencon_inst\.ALU_in1\[6\]
*124 CALC_INST\.gencon_inst\.ALU_in1\[7\]
*125 CALC_INST\.gencon_inst\.ALU_in1\[8\]
*126 CALC_INST\.gencon_inst\.ALU_in1\[9\]
*127 CALC_INST\.gencon_inst\.ALU_in2\[0\]
*128 CALC_INST\.gencon_inst\.ALU_in2\[10\]
*129 CALC_INST\.gencon_inst\.ALU_in2\[11\]
*130 CALC_INST\.gencon_inst\.ALU_in2\[12\]
*131 CALC_INST\.gencon_inst\.ALU_in2\[13\]
*132 CALC_INST\.gencon_inst\.ALU_in2\[14\]
*133 CALC_INST\.gencon_inst\.ALU_in2\[15\]
*134 CALC_INST\.gencon_inst\.ALU_in2\[1\]
*135 CALC_INST\.gencon_inst\.ALU_in2\[2\]
*136 CALC_INST\.gencon_inst\.ALU_in2\[3\]
*137 CALC_INST\.gencon_inst\.ALU_in2\[4\]
*138 CALC_INST\.gencon_inst\.ALU_in2\[5\]
*139 CALC_INST\.gencon_inst\.ALU_in2\[6\]
*140 CALC_INST\.gencon_inst\.ALU_in2\[7\]
*141 CALC_INST\.gencon_inst\.ALU_in2\[8\]
*142 CALC_INST\.gencon_inst\.ALU_in2\[9\]
*143 CALC_INST\.gencon_inst\.ALU_out\[0\]
*144 CALC_INST\.gencon_inst\.ALU_out\[10\]
*145 CALC_INST\.gencon_inst\.ALU_out\[11\]
*146 CALC_INST\.gencon_inst\.ALU_out\[12\]
*147 CALC_INST\.gencon_inst\.ALU_out\[13\]
*148 CALC_INST\.gencon_inst\.ALU_out\[14\]
*149 CALC_INST\.gencon_inst\.ALU_out\[15\]
*150 CALC_INST\.gencon_inst\.ALU_out\[1\]
*151 CALC_INST\.gencon_inst\.ALU_out\[2\]
*152 CALC_INST\.gencon_inst\.ALU_out\[3\]
*153 CALC_INST\.gencon_inst\.ALU_out\[4\]
*154 CALC_INST\.gencon_inst\.ALU_out\[5\]
*155 CALC_INST\.gencon_inst\.ALU_out\[6\]
*156 CALC_INST\.gencon_inst\.ALU_out\[7\]
*157 CALC_INST\.gencon_inst\.ALU_out\[8\]
*158 CALC_INST\.gencon_inst\.ALU_out\[9\]
*159 CALC_INST\.gencon_inst\.addOrSub
*160 CALC_INST\.gencon_inst\.add_calc\.diffSign
*161 CALC_INST\.gencon_inst\.add_calc\.main\.GENERATE_ADDER\[10\]\.thingy\.in1
*162 CALC_INST\.gencon_inst\.add_calc\.main\.GENERATE_ADDER\[11\]\.thingy\.in1
*163 CALC_INST\.gencon_inst\.add_calc\.main\.GENERATE_ADDER\[12\]\.thingy\.in1
*164 CALC_INST\.gencon_inst\.add_calc\.main\.GENERATE_ADDER\[13\]\.thingy\.in1
*165 CALC_INST\.gencon_inst\.add_calc\.main\.GENERATE_ADDER\[14\]\.thingy\.in1
*166 CALC_INST\.gencon_inst\.add_calc\.main\.GENERATE_ADDER\[1\]\.thingy\.in1
*167 CALC_INST\.gencon_inst\.add_calc\.main\.GENERATE_ADDER\[2\]\.thingy\.in1
*168 CALC_INST\.gencon_inst\.add_calc\.main\.GENERATE_ADDER\[3\]\.thingy\.in1
*169 CALC_INST\.gencon_inst\.add_calc\.main\.GENERATE_ADDER\[4\]\.thingy\.in1
*170 CALC_INST\.gencon_inst\.add_calc\.main\.GENERATE_ADDER\[5\]\.thingy\.in1
*171 CALC_INST\.gencon_inst\.add_calc\.main\.GENERATE_ADDER\[6\]\.thingy\.in1
*172 CALC_INST\.gencon_inst\.add_calc\.main\.GENERATE_ADDER\[7\]\.thingy\.in1
*173 CALC_INST\.gencon_inst\.add_calc\.main\.GENERATE_ADDER\[8\]\.thingy\.in1
*174 CALC_INST\.gencon_inst\.add_calc\.main\.GENERATE_ADDER\[9\]\.thingy\.in1
*175 CALC_INST\.gencon_inst\.add_calc\.main\.a0\.in1
*176 CALC_INST\.gencon_inst\.add_calc\.main\.in2\[0\]
*177 CALC_INST\.gencon_inst\.add_calc\.main\.in2\[10\]
*178 CALC_INST\.gencon_inst\.add_calc\.main\.in2\[11\]
*179 CALC_INST\.gencon_inst\.add_calc\.main\.in2\[12\]
*180 CALC_INST\.gencon_inst\.add_calc\.main\.in2\[13\]
*181 CALC_INST\.gencon_inst\.add_calc\.main\.in2\[14\]
*182 CALC_INST\.gencon_inst\.add_calc\.main\.in2\[1\]
*183 CALC_INST\.gencon_inst\.add_calc\.main\.in2\[2\]
*184 CALC_INST\.gencon_inst\.add_calc\.main\.in2\[3\]
*185 CALC_INST\.gencon_inst\.add_calc\.main\.in2\[4\]
*186 CALC_INST\.gencon_inst\.add_calc\.main\.in2\[5\]
*187 CALC_INST\.gencon_inst\.add_calc\.main\.in2\[6\]
*188 CALC_INST\.gencon_inst\.add_calc\.main\.in2\[7\]
*189 CALC_INST\.gencon_inst\.add_calc\.main\.in2\[8\]
*190 CALC_INST\.gencon_inst\.add_calc\.main\.in2\[9\]
*191 CALC_INST\.gencon_inst\.add_calc\.next_finish
*192 CALC_INST\.gencon_inst\.add_calc\.sameSignVal
*193 CALC_INST\.gencon_inst\.add_calc\.start
*194 CALC_INST\.gencon_inst\.add_calc\.state\[0\]
*195 CALC_INST\.gencon_inst\.add_calc\.state\[1\]
*196 CALC_INST\.gencon_inst\.add_calc\.state\[2\]
*197 CALC_INST\.gencon_inst\.gencon_state\[0\]
*198 CALC_INST\.gencon_inst\.gencon_state\[1\]
*199 CALC_INST\.gencon_inst\.gencon_state\[2\]
*200 CALC_INST\.gencon_inst\.gencon_state\[3\]
*201 CALC_INST\.gencon_inst\.key_read
*202 CALC_INST\.gencon_inst\.keypad_input\[0\]
*203 CALC_INST\.gencon_inst\.keypad_input\[1\]
*204 CALC_INST\.gencon_inst\.keypad_input\[2\]
*205 CALC_INST\.gencon_inst\.keypad_input\[3\]
*206 CALC_INST\.gencon_inst\.latched_keypad_input\[0\]
*207 CALC_INST\.gencon_inst\.latched_keypad_input\[1\]
*208 CALC_INST\.gencon_inst\.latched_keypad_input\[2\]
*209 CALC_INST\.gencon_inst\.latched_keypad_input\[3\]
*210 CALC_INST\.gencon_inst\.latched_operator_input\[0\]
*211 CALC_INST\.gencon_inst\.latched_operator_input\[1\]
*212 CALC_INST\.gencon_inst\.latched_operator_input\[2\]
*213 CALC_INST\.gencon_inst\.mult_calc\.INn1\[0\]
*214 CALC_INST\.gencon_inst\.mult_calc\.INn1\[10\]
*215 CALC_INST\.gencon_inst\.mult_calc\.INn1\[11\]
*216 CALC_INST\.gencon_inst\.mult_calc\.INn1\[12\]
*217 CALC_INST\.gencon_inst\.mult_calc\.INn1\[13\]
*218 CALC_INST\.gencon_inst\.mult_calc\.INn1\[14\]
*219 CALC_INST\.gencon_inst\.mult_calc\.INn1\[15\]
*220 CALC_INST\.gencon_inst\.mult_calc\.INn1\[1\]
*221 CALC_INST\.gencon_inst\.mult_calc\.INn1\[2\]
*222 CALC_INST\.gencon_inst\.mult_calc\.INn1\[3\]
*223 CALC_INST\.gencon_inst\.mult_calc\.INn1\[4\]
*224 CALC_INST\.gencon_inst\.mult_calc\.INn1\[5\]
*225 CALC_INST\.gencon_inst\.mult_calc\.INn1\[6\]
*226 CALC_INST\.gencon_inst\.mult_calc\.INn1\[7\]
*227 CALC_INST\.gencon_inst\.mult_calc\.INn1\[8\]
*228 CALC_INST\.gencon_inst\.mult_calc\.INn1\[9\]
*229 CALC_INST\.gencon_inst\.mult_calc\.INn2\[0\]
*230 CALC_INST\.gencon_inst\.mult_calc\.INn2\[10\]
*231 CALC_INST\.gencon_inst\.mult_calc\.INn2\[11\]
*232 CALC_INST\.gencon_inst\.mult_calc\.INn2\[12\]
*233 CALC_INST\.gencon_inst\.mult_calc\.INn2\[13\]
*234 CALC_INST\.gencon_inst\.mult_calc\.INn2\[14\]
*235 CALC_INST\.gencon_inst\.mult_calc\.INn2\[15\]
*236 CALC_INST\.gencon_inst\.mult_calc\.INn2\[1\]
*237 CALC_INST\.gencon_inst\.mult_calc\.INn2\[2\]
*238 CALC_INST\.gencon_inst\.mult_calc\.INn2\[3\]
*239 CALC_INST\.gencon_inst\.mult_calc\.INn2\[4\]
*240 CALC_INST\.gencon_inst\.mult_calc\.INn2\[5\]
*241 CALC_INST\.gencon_inst\.mult_calc\.INn2\[6\]
*242 CALC_INST\.gencon_inst\.mult_calc\.INn2\[7\]
*243 CALC_INST\.gencon_inst\.mult_calc\.INn2\[8\]
*244 CALC_INST\.gencon_inst\.mult_calc\.INn2\[9\]
*245 CALC_INST\.gencon_inst\.mult_calc\.adderSave\[0\]
*246 CALC_INST\.gencon_inst\.mult_calc\.adderSave\[10\]
*247 CALC_INST\.gencon_inst\.mult_calc\.adderSave\[11\]
*248 CALC_INST\.gencon_inst\.mult_calc\.adderSave\[12\]
*249 CALC_INST\.gencon_inst\.mult_calc\.adderSave\[13\]
*250 CALC_INST\.gencon_inst\.mult_calc\.adderSave\[14\]
*251 CALC_INST\.gencon_inst\.mult_calc\.adderSave\[1\]
*252 CALC_INST\.gencon_inst\.mult_calc\.adderSave\[2\]
*253 CALC_INST\.gencon_inst\.mult_calc\.adderSave\[3\]
*254 CALC_INST\.gencon_inst\.mult_calc\.adderSave\[4\]
*255 CALC_INST\.gencon_inst\.mult_calc\.adderSave\[5\]
*256 CALC_INST\.gencon_inst\.mult_calc\.adderSave\[6\]
*257 CALC_INST\.gencon_inst\.mult_calc\.adderSave\[7\]
*258 CALC_INST\.gencon_inst\.mult_calc\.adderSave\[8\]
*259 CALC_INST\.gencon_inst\.mult_calc\.adderSave\[9\]
*260 CALC_INST\.gencon_inst\.mult_calc\.compCount\.in2\[0\]
*261 CALC_INST\.gencon_inst\.mult_calc\.compCount\.in2\[10\]
*262 CALC_INST\.gencon_inst\.mult_calc\.compCount\.in2\[11\]
*263 CALC_INST\.gencon_inst\.mult_calc\.compCount\.in2\[12\]
*264 CALC_INST\.gencon_inst\.mult_calc\.compCount\.in2\[13\]
*265 CALC_INST\.gencon_inst\.mult_calc\.compCount\.in2\[14\]
*266 CALC_INST\.gencon_inst\.mult_calc\.compCount\.in2\[1\]
*267 CALC_INST\.gencon_inst\.mult_calc\.compCount\.in2\[2\]
*268 CALC_INST\.gencon_inst\.mult_calc\.compCount\.in2\[3\]
*269 CALC_INST\.gencon_inst\.mult_calc\.compCount\.in2\[4\]
*270 CALC_INST\.gencon_inst\.mult_calc\.compCount\.in2\[5\]
*271 CALC_INST\.gencon_inst\.mult_calc\.compCount\.in2\[6\]
*272 CALC_INST\.gencon_inst\.mult_calc\.compCount\.in2\[7\]
*273 CALC_INST\.gencon_inst\.mult_calc\.compCount\.in2\[8\]
*274 CALC_INST\.gencon_inst\.mult_calc\.compCount\.in2\[9\]
*275 CALC_INST\.gencon_inst\.mult_calc\.count\.GENERATE_ADDER\[10\]\.thingy\.in1
*276 CALC_INST\.gencon_inst\.mult_calc\.count\.GENERATE_ADDER\[11\]\.thingy\.in1
*277 CALC_INST\.gencon_inst\.mult_calc\.count\.GENERATE_ADDER\[12\]\.thingy\.in1
*278 CALC_INST\.gencon_inst\.mult_calc\.count\.GENERATE_ADDER\[13\]\.thingy\.in1
*279 CALC_INST\.gencon_inst\.mult_calc\.count\.GENERATE_ADDER\[14\]\.thingy\.in1
*280 CALC_INST\.gencon_inst\.mult_calc\.count\.GENERATE_ADDER\[1\]\.thingy\.cIn
*281 CALC_INST\.gencon_inst\.mult_calc\.count\.GENERATE_ADDER\[1\]\.thingy\.in1
*282 CALC_INST\.gencon_inst\.mult_calc\.count\.GENERATE_ADDER\[2\]\.thingy\.in1
*283 CALC_INST\.gencon_inst\.mult_calc\.count\.GENERATE_ADDER\[3\]\.thingy\.in1
*284 CALC_INST\.gencon_inst\.mult_calc\.count\.GENERATE_ADDER\[4\]\.thingy\.in1
*285 CALC_INST\.gencon_inst\.mult_calc\.count\.GENERATE_ADDER\[5\]\.thingy\.in1
*286 CALC_INST\.gencon_inst\.mult_calc\.count\.GENERATE_ADDER\[6\]\.thingy\.in1
*287 CALC_INST\.gencon_inst\.mult_calc\.count\.GENERATE_ADDER\[7\]\.thingy\.in1
*288 CALC_INST\.gencon_inst\.mult_calc\.count\.GENERATE_ADDER\[8\]\.thingy\.in1
*289 CALC_INST\.gencon_inst\.mult_calc\.count\.GENERATE_ADDER\[9\]\.thingy\.in1
*290 CALC_INST\.gencon_inst\.mult_calc\.countSave\[0\]
*291 CALC_INST\.gencon_inst\.mult_calc\.countSave\[10\]
*292 CALC_INST\.gencon_inst\.mult_calc\.countSave\[11\]
*293 CALC_INST\.gencon_inst\.mult_calc\.countSave\[12\]
*294 CALC_INST\.gencon_inst\.mult_calc\.countSave\[13\]
*295 CALC_INST\.gencon_inst\.mult_calc\.countSave\[14\]
*296 CALC_INST\.gencon_inst\.mult_calc\.countSave\[1\]
*297 CALC_INST\.gencon_inst\.mult_calc\.countSave\[2\]
*298 CALC_INST\.gencon_inst\.mult_calc\.countSave\[3\]
*299 CALC_INST\.gencon_inst\.mult_calc\.countSave\[4\]
*300 CALC_INST\.gencon_inst\.mult_calc\.countSave\[5\]
*301 CALC_INST\.gencon_inst\.mult_calc\.countSave\[6\]
*302 CALC_INST\.gencon_inst\.mult_calc\.countSave\[7\]
*303 CALC_INST\.gencon_inst\.mult_calc\.countSave\[8\]
*304 CALC_INST\.gencon_inst\.mult_calc\.countSave\[9\]
*305 CALC_INST\.gencon_inst\.mult_calc\.diffSign
*306 CALC_INST\.gencon_inst\.mult_calc\.finish
*307 CALC_INST\.gencon_inst\.mult_calc\.main\.GENERATE_ADDER\[10\]\.thingy\.in1
*308 CALC_INST\.gencon_inst\.mult_calc\.main\.GENERATE_ADDER\[10\]\.thingy\.in2
*309 CALC_INST\.gencon_inst\.mult_calc\.main\.GENERATE_ADDER\[11\]\.thingy\.in1
*310 CALC_INST\.gencon_inst\.mult_calc\.main\.GENERATE_ADDER\[11\]\.thingy\.in2
*311 CALC_INST\.gencon_inst\.mult_calc\.main\.GENERATE_ADDER\[12\]\.thingy\.in1
*312 CALC_INST\.gencon_inst\.mult_calc\.main\.GENERATE_ADDER\[12\]\.thingy\.in2
*313 CALC_INST\.gencon_inst\.mult_calc\.main\.GENERATE_ADDER\[13\]\.thingy\.in1
*314 CALC_INST\.gencon_inst\.mult_calc\.main\.GENERATE_ADDER\[13\]\.thingy\.in2
*315 CALC_INST\.gencon_inst\.mult_calc\.main\.GENERATE_ADDER\[14\]\.thingy\.in1
*316 CALC_INST\.gencon_inst\.mult_calc\.main\.GENERATE_ADDER\[14\]\.thingy\.in2
*317 CALC_INST\.gencon_inst\.mult_calc\.main\.GENERATE_ADDER\[1\]\.thingy\.in1
*318 CALC_INST\.gencon_inst\.mult_calc\.main\.GENERATE_ADDER\[1\]\.thingy\.in2
*319 CALC_INST\.gencon_inst\.mult_calc\.main\.GENERATE_ADDER\[2\]\.thingy\.in1
*320 CALC_INST\.gencon_inst\.mult_calc\.main\.GENERATE_ADDER\[2\]\.thingy\.in2
*321 CALC_INST\.gencon_inst\.mult_calc\.main\.GENERATE_ADDER\[3\]\.thingy\.in1
*322 CALC_INST\.gencon_inst\.mult_calc\.main\.GENERATE_ADDER\[3\]\.thingy\.in2
*323 CALC_INST\.gencon_inst\.mult_calc\.main\.GENERATE_ADDER\[4\]\.thingy\.in1
*324 CALC_INST\.gencon_inst\.mult_calc\.main\.GENERATE_ADDER\[4\]\.thingy\.in2
*325 CALC_INST\.gencon_inst\.mult_calc\.main\.GENERATE_ADDER\[5\]\.thingy\.in1
*326 CALC_INST\.gencon_inst\.mult_calc\.main\.GENERATE_ADDER\[5\]\.thingy\.in2
*327 CALC_INST\.gencon_inst\.mult_calc\.main\.GENERATE_ADDER\[6\]\.thingy\.in1
*328 CALC_INST\.gencon_inst\.mult_calc\.main\.GENERATE_ADDER\[6\]\.thingy\.in2
*329 CALC_INST\.gencon_inst\.mult_calc\.main\.GENERATE_ADDER\[7\]\.thingy\.in1
*330 CALC_INST\.gencon_inst\.mult_calc\.main\.GENERATE_ADDER\[7\]\.thingy\.in2
*331 CALC_INST\.gencon_inst\.mult_calc\.main\.GENERATE_ADDER\[8\]\.thingy\.in1
*332 CALC_INST\.gencon_inst\.mult_calc\.main\.GENERATE_ADDER\[8\]\.thingy\.in2
*333 CALC_INST\.gencon_inst\.mult_calc\.main\.GENERATE_ADDER\[9\]\.thingy\.in1
*334 CALC_INST\.gencon_inst\.mult_calc\.main\.GENERATE_ADDER\[9\]\.thingy\.in2
*335 CALC_INST\.gencon_inst\.mult_calc\.main\.a0\.in1
*336 CALC_INST\.gencon_inst\.mult_calc\.main\.a0\.in2
*337 CALC_INST\.gencon_inst\.mult_calc\.next_finish
*338 CALC_INST\.gencon_inst\.mult_calc\.out\[0\]
*339 CALC_INST\.gencon_inst\.mult_calc\.out\[10\]
*340 CALC_INST\.gencon_inst\.mult_calc\.out\[11\]
*341 CALC_INST\.gencon_inst\.mult_calc\.out\[12\]
*342 CALC_INST\.gencon_inst\.mult_calc\.out\[13\]
*343 CALC_INST\.gencon_inst\.mult_calc\.out\[14\]
*344 CALC_INST\.gencon_inst\.mult_calc\.out\[15\]
*345 CALC_INST\.gencon_inst\.mult_calc\.out\[1\]
*346 CALC_INST\.gencon_inst\.mult_calc\.out\[2\]
*347 CALC_INST\.gencon_inst\.mult_calc\.out\[3\]
*348 CALC_INST\.gencon_inst\.mult_calc\.out\[4\]
*349 CALC_INST\.gencon_inst\.mult_calc\.out\[5\]
*350 CALC_INST\.gencon_inst\.mult_calc\.out\[6\]
*351 CALC_INST\.gencon_inst\.mult_calc\.out\[7\]
*352 CALC_INST\.gencon_inst\.mult_calc\.out\[8\]
*353 CALC_INST\.gencon_inst\.mult_calc\.out\[9\]
*354 CALC_INST\.gencon_inst\.mult_calc\.start
*355 CALC_INST\.gencon_inst\.mult_calc\.state\[0\]
*356 CALC_INST\.gencon_inst\.mult_calc\.state\[2\]
*357 CALC_INST\.gencon_inst\.mult_calc\.state\[3\]
*358 CALC_INST\.gencon_inst\.mult_calc\.state\[4\]
*359 CALC_INST\.gencon_inst\.next_state\[0\]
*360 CALC_INST\.gencon_inst\.next_state\[1\]
*361 CALC_INST\.gencon_inst\.next_state\[2\]
*362 CALC_INST\.gencon_inst\.next_state\[3\]
*363 CALC_INST\.gencon_inst\.operand1\[0\]
*364 CALC_INST\.gencon_inst\.operand1\[10\]
*365 CALC_INST\.gencon_inst\.operand1\[11\]
*366 CALC_INST\.gencon_inst\.operand1\[12\]
*367 CALC_INST\.gencon_inst\.operand1\[13\]
*368 CALC_INST\.gencon_inst\.operand1\[14\]
*369 CALC_INST\.gencon_inst\.operand1\[15\]
*370 CALC_INST\.gencon_inst\.operand1\[1\]
*371 CALC_INST\.gencon_inst\.operand1\[2\]
*372 CALC_INST\.gencon_inst\.operand1\[3\]
*373 CALC_INST\.gencon_inst\.operand1\[4\]
*374 CALC_INST\.gencon_inst\.operand1\[5\]
*375 CALC_INST\.gencon_inst\.operand1\[6\]
*376 CALC_INST\.gencon_inst\.operand1\[7\]
*377 CALC_INST\.gencon_inst\.operand1\[8\]
*378 CALC_INST\.gencon_inst\.operand1\[9\]
*379 CALC_INST\.gencon_inst\.operand2\[0\]
*380 CALC_INST\.gencon_inst\.operand2\[10\]
*381 CALC_INST\.gencon_inst\.operand2\[11\]
*382 CALC_INST\.gencon_inst\.operand2\[12\]
*383 CALC_INST\.gencon_inst\.operand2\[13\]
*384 CALC_INST\.gencon_inst\.operand2\[14\]
*385 CALC_INST\.gencon_inst\.operand2\[15\]
*386 CALC_INST\.gencon_inst\.operand2\[1\]
*387 CALC_INST\.gencon_inst\.operand2\[2\]
*388 CALC_INST\.gencon_inst\.operand2\[3\]
*389 CALC_INST\.gencon_inst\.operand2\[4\]
*390 CALC_INST\.gencon_inst\.operand2\[5\]
*391 CALC_INST\.gencon_inst\.operand2\[6\]
*392 CALC_INST\.gencon_inst\.operand2\[7\]
*393 CALC_INST\.gencon_inst\.operand2\[8\]
*394 CALC_INST\.gencon_inst\.operand2\[9\]
*395 CALC_INST\.gencon_inst\.operator_input\[0\]
*396 CALC_INST\.gencon_inst\.operator_input\[1\]
*397 CALC_INST\.gencon_inst\.operator_input\[2\]
*398 CALC_INST\.gencon_inst\.prev_operator_input\[0\]
*399 CALC_INST\.gencon_inst\.prev_operator_input\[1\]
*400 CALC_INST\.gencon_inst\.prev_operator_input\[2\]
*401 CALC_INST\.gencon_inst\.prev_read_input
*402 CALC_INST\.gencon_inst\.read_input
*403 CALC_INST\.input_ctrl_inst\.RowMid\[0\]
*404 CALC_INST\.input_ctrl_inst\.RowMid\[1\]
*405 CALC_INST\.input_ctrl_inst\.RowMid\[2\]
*406 CALC_INST\.input_ctrl_inst\.RowMid\[3\]
*407 CALC_INST\.input_ctrl_inst\.RowSync\[0\]
*408 CALC_INST\.input_ctrl_inst\.RowSync\[1\]
*409 CALC_INST\.input_ctrl_inst\.RowSync\[2\]
*410 CALC_INST\.input_ctrl_inst\.RowSync\[3\]
*411 CALC_INST\.input_ctrl_inst\.col_index\[0\]
*412 CALC_INST\.input_ctrl_inst\.col_index\[10\]
*413 CALC_INST\.input_ctrl_inst\.col_index\[11\]
*414 CALC_INST\.input_ctrl_inst\.col_index\[12\]
*415 CALC_INST\.input_ctrl_inst\.col_index\[13\]
*416 CALC_INST\.input_ctrl_inst\.col_index\[14\]
*417 CALC_INST\.input_ctrl_inst\.col_index\[15\]
*418 CALC_INST\.input_ctrl_inst\.col_index\[16\]
*419 CALC_INST\.input_ctrl_inst\.col_index\[17\]
*420 CALC_INST\.input_ctrl_inst\.col_index\[18\]
*421 CALC_INST\.input_ctrl_inst\.col_index\[19\]
*422 CALC_INST\.input_ctrl_inst\.col_index\[1\]
*423 CALC_INST\.input_ctrl_inst\.col_index\[20\]
*424 CALC_INST\.input_ctrl_inst\.col_index\[21\]
*425 CALC_INST\.input_ctrl_inst\.col_index\[22\]
*426 CALC_INST\.input_ctrl_inst\.col_index\[23\]
*427 CALC_INST\.input_ctrl_inst\.col_index\[24\]
*428 CALC_INST\.input_ctrl_inst\.col_index\[25\]
*429 CALC_INST\.input_ctrl_inst\.col_index\[26\]
*430 CALC_INST\.input_ctrl_inst\.col_index\[27\]
*431 CALC_INST\.input_ctrl_inst\.col_index\[28\]
*432 CALC_INST\.input_ctrl_inst\.col_index\[29\]
*433 CALC_INST\.input_ctrl_inst\.col_index\[2\]
*434 CALC_INST\.input_ctrl_inst\.col_index\[30\]
*435 CALC_INST\.input_ctrl_inst\.col_index\[31\]
*436 CALC_INST\.input_ctrl_inst\.col_index\[3\]
*437 CALC_INST\.input_ctrl_inst\.col_index\[4\]
*438 CALC_INST\.input_ctrl_inst\.col_index\[5\]
*439 CALC_INST\.input_ctrl_inst\.col_index\[6\]
*440 CALC_INST\.input_ctrl_inst\.col_index\[7\]
*441 CALC_INST\.input_ctrl_inst\.col_index\[8\]
*442 CALC_INST\.input_ctrl_inst\.col_index\[9\]
*443 CALC_INST\.input_ctrl_inst\.debounce_cnt\[0\]
*444 CALC_INST\.input_ctrl_inst\.debounce_cnt\[10\]
*445 CALC_INST\.input_ctrl_inst\.debounce_cnt\[11\]
*446 CALC_INST\.input_ctrl_inst\.debounce_cnt\[12\]
*447 CALC_INST\.input_ctrl_inst\.debounce_cnt\[13\]
*448 CALC_INST\.input_ctrl_inst\.debounce_cnt\[14\]
*449 CALC_INST\.input_ctrl_inst\.debounce_cnt\[15\]
*450 CALC_INST\.input_ctrl_inst\.debounce_cnt\[16\]
*451 CALC_INST\.input_ctrl_inst\.debounce_cnt\[17\]
*452 CALC_INST\.input_ctrl_inst\.debounce_cnt\[18\]
*453 CALC_INST\.input_ctrl_inst\.debounce_cnt\[1\]
*454 CALC_INST\.input_ctrl_inst\.debounce_cnt\[2\]
*455 CALC_INST\.input_ctrl_inst\.debounce_cnt\[3\]
*456 CALC_INST\.input_ctrl_inst\.debounce_cnt\[4\]
*457 CALC_INST\.input_ctrl_inst\.debounce_cnt\[5\]
*458 CALC_INST\.input_ctrl_inst\.debounce_cnt\[6\]
*459 CALC_INST\.input_ctrl_inst\.debounce_cnt\[7\]
*460 CALC_INST\.input_ctrl_inst\.debounce_cnt\[8\]
*461 CALC_INST\.input_ctrl_inst\.debounce_cnt\[9\]
*462 CALC_INST\.input_ctrl_inst\.decoded_key\[0\]
*463 CALC_INST\.input_ctrl_inst\.decoded_key\[1\]
*464 CALC_INST\.input_ctrl_inst\.decoded_key\[2\]
*465 CALC_INST\.input_ctrl_inst\.decoded_key\[3\]
*466 CALC_INST\.input_ctrl_inst\.input_control_state\[0\]
*467 CALC_INST\.input_ctrl_inst\.input_control_state\[1\]
*468 CALC_INST\.input_ctrl_inst\.input_control_state\[2\]
*469 CALC_INST\.input_ctrl_inst\.key_pressed
*470 CALC_INST\.input_ctrl_inst\.next_state\[0\]
*471 CALC_INST\.input_ctrl_inst\.next_state\[1\]
*472 CALC_INST\.input_ctrl_inst\.next_state\[2\]
*473 CALC_INST\.input_ctrl_inst\.read_input_flag
*474 CALC_INST\.input_ctrl_inst\.scan_timer\[0\]
*475 CALC_INST\.input_ctrl_inst\.scan_timer\[10\]
*476 CALC_INST\.input_ctrl_inst\.scan_timer\[11\]
*477 CALC_INST\.input_ctrl_inst\.scan_timer\[12\]
*478 CALC_INST\.input_ctrl_inst\.scan_timer\[13\]
*479 CALC_INST\.input_ctrl_inst\.scan_timer\[14\]
*480 CALC_INST\.input_ctrl_inst\.scan_timer\[15\]
*481 CALC_INST\.input_ctrl_inst\.scan_timer\[16\]
*482 CALC_INST\.input_ctrl_inst\.scan_timer\[17\]
*483 CALC_INST\.input_ctrl_inst\.scan_timer\[18\]
*484 CALC_INST\.input_ctrl_inst\.scan_timer\[19\]
*485 CALC_INST\.input_ctrl_inst\.scan_timer\[1\]
*486 CALC_INST\.input_ctrl_inst\.scan_timer\[2\]
*487 CALC_INST\.input_ctrl_inst\.scan_timer\[3\]
*488 CALC_INST\.input_ctrl_inst\.scan_timer\[4\]
*489 CALC_INST\.input_ctrl_inst\.scan_timer\[5\]
*490 CALC_INST\.input_ctrl_inst\.scan_timer\[6\]
*491 CALC_INST\.input_ctrl_inst\.scan_timer\[7\]
*492 CALC_INST\.input_ctrl_inst\.scan_timer\[8\]
*493 CALC_INST\.input_ctrl_inst\.scan_timer\[9\]
*494 _0000_
*495 _0001_
*496 _0002_
*497 _0003_
*498 _0004_
*499 _0005_
*500 _0006_
*501 _0007_
*502 _0008_
*503 _0009_
*504 _0010_
*505 _0011_
*506 _0012_
*507 _0013_
*508 _0014_
*509 _0015_
*510 _0016_
*511 _0017_
*512 _0018_
*513 _0019_
*514 _0020_
*515 _0021_
*516 _0022_
*517 _0023_
*518 _0024_
*519 _0025_
*520 _0026_
*521 _0027_
*522 _0028_
*523 _0029_
*524 _0030_
*525 _0031_
*526 _0032_
*527 _0033_
*528 _0034_
*529 _0035_
*530 _0036_
*531 _0037_
*532 _0038_
*533 _0039_
*534 _0040_
*535 _0041_
*536 _0042_
*537 _0043_
*538 _0044_
*539 _0045_
*540 _0046_
*541 _0047_
*542 _0048_
*543 _0049_
*544 _0050_
*545 _0051_
*546 _0052_
*547 _0053_
*548 _0054_
*549 _0055_
*550 _0056_
*551 _0057_
*552 _0058_
*553 _0059_
*554 _0060_
*555 _0061_
*556 _0062_
*557 _0063_
*558 _0064_
*559 _0065_
*560 _0066_
*561 _0067_
*562 _0068_
*563 _0069_
*564 _0070_
*565 _0071_
*566 _0072_
*567 _0073_
*568 _0074_
*569 _0075_
*570 _0076_
*571 _0077_
*572 _0078_
*573 _0079_
*574 _0080_
*575 _0081_
*576 _0082_
*577 _0083_
*578 _0084_
*579 _0085_
*580 _0086_
*581 _0087_
*582 _0088_
*583 _0089_
*584 _0090_
*585 _0091_
*586 _0092_
*587 _0093_
*588 _0094_
*589 _0095_
*590 _0096_
*591 _0097_
*592 _0098_
*593 _0099_
*594 _0100_
*595 _0101_
*596 _0102_
*597 _0103_
*598 _0104_
*599 _0105_
*600 _0106_
*601 _0107_
*602 _0108_
*603 _0109_
*604 _0110_
*605 _0111_
*606 _0112_
*607 _0113_
*608 _0114_
*609 _0115_
*610 _0116_
*611 _0117_
*612 _0118_
*613 _0119_
*614 _0120_
*615 _0121_
*616 _0122_
*617 _0123_
*618 _0124_
*619 _0125_
*620 _0126_
*621 _0127_
*622 _0128_
*623 _0129_
*624 _0130_
*625 _0131_
*626 _0132_
*627 _0133_
*628 _0134_
*629 _0135_
*630 _0136_
*631 _0137_
*632 _0138_
*633 _0139_
*634 _0140_
*635 _0141_
*636 _0142_
*637 _0143_
*638 _0144_
*639 _0145_
*640 _0146_
*641 _0147_
*642 _0148_
*643 _0149_
*644 _0150_
*645 _0151_
*646 _0152_
*647 _0153_
*648 _0154_
*649 _0155_
*650 _0156_
*651 _0157_
*652 _0158_
*653 _0159_
*654 _0160_
*655 _0161_
*656 _0162_
*657 _0163_
*658 _0164_
*659 _0165_
*660 _0166_
*661 _0167_
*662 _0168_
*663 _0169_
*664 _0170_
*665 _0171_
*666 _0172_
*667 _0173_
*668 _0174_
*669 _0175_
*670 _0176_
*671 _0177_
*672 _0178_
*673 _0179_
*674 _0180_
*675 _0181_
*676 _0182_
*677 _0183_
*678 _0184_
*679 _0185_
*680 _0186_
*681 _0187_
*682 _0188_
*683 _0189_
*684 _0190_
*685 _0191_
*686 _0192_
*687 _0193_
*688 _0194_
*689 _0195_
*690 _0196_
*691 _0197_
*692 _0198_
*693 _0199_
*694 _0200_
*695 _0201_
*696 _0202_
*697 _0203_
*698 _0204_
*699 _0205_
*700 _0206_
*701 _0207_
*702 _0208_
*703 _0209_
*704 _0210_
*705 _0211_
*706 _0212_
*707 _0213_
*708 _0214_
*709 _0215_
*710 _0216_
*711 _0217_
*712 _0218_
*713 _0219_
*714 _0220_
*715 _0221_
*716 _0222_
*717 _0223_
*718 _0224_
*719 _0225_
*720 _0226_
*721 _0227_
*722 _0228_
*723 _0229_
*724 _0230_
*725 _0231_
*726 _0232_
*727 _0233_
*728 _0234_
*729 _0235_
*730 _0236_
*731 _0237_
*732 _0238_
*733 _0239_
*734 _0240_
*735 _0241_
*736 _0242_
*737 _0243_
*738 _0244_
*739 _0245_
*740 _0246_
*741 _0247_
*742 _0248_
*743 _0249_
*744 _0250_
*745 _0251_
*746 _0252_
*747 _0253_
*748 _0254_
*749 _0255_
*750 _0256_
*751 _0257_
*752 _0258_
*753 _0259_
*754 _0260_
*755 _0261_
*756 _0262_
*757 _0263_
*758 _0264_
*759 _0265_
*760 _0266_
*761 _0267_
*762 _0268_
*763 _0269_
*764 _0270_
*765 _0271_
*766 _0272_
*767 _0273_
*768 _0274_
*769 _0275_
*770 _0276_
*771 _0277_
*772 _0278_
*773 _0279_
*774 _0280_
*775 _0281_
*776 _0282_
*777 _0283_
*778 _0284_
*779 _0285_
*780 _0286_
*781 _0287_
*782 _0288_
*783 _0289_
*784 _0290_
*785 _0291_
*786 _0292_
*787 _0293_
*788 _0294_
*789 _0295_
*790 _0296_
*791 _0297_
*792 _0298_
*793 _0299_
*794 _0300_
*795 _0301_
*796 _0302_
*797 _0303_
*798 _0304_
*799 _0305_
*800 _0306_
*801 _0307_
*802 _0308_
*803 _0309_
*804 _0310_
*805 _0311_
*806 _0312_
*807 _0313_
*808 _0314_
*809 _0315_
*810 _0316_
*811 _0317_
*812 _0318_
*813 _0319_
*814 _0320_
*815 _0321_
*816 _0322_
*817 _0323_
*818 _0324_
*819 _0325_
*820 _0326_
*821 _0327_
*822 _0328_
*823 _0329_
*824 _0330_
*825 _0331_
*826 _0332_
*827 _0333_
*828 _0334_
*829 _0335_
*830 _0336_
*831 _0337_
*832 _0338_
*833 _0339_
*834 _0340_
*835 _0341_
*836 _0342_
*837 _0343_
*838 _0344_
*839 _0345_
*840 _0346_
*841 _0347_
*842 _0348_
*843 _0349_
*844 _0350_
*845 _0351_
*846 _0352_
*847 _0353_
*848 _0354_
*849 _0355_
*850 _0356_
*851 _0357_
*852 _0358_
*853 _0359_
*854 _0360_
*855 _0361_
*856 _0362_
*857 _0363_
*858 _0364_
*859 _0365_
*860 _0366_
*861 _0367_
*862 _0368_
*863 _0369_
*864 _0370_
*865 _0371_
*866 _0372_
*867 _0373_
*868 _0374_
*869 _0375_
*870 _0376_
*871 _0377_
*872 _0378_
*873 _0379_
*874 _0380_
*875 _0381_
*876 _0382_
*877 _0383_
*878 _0384_
*879 _0385_
*880 _0386_
*881 _0387_
*882 _0388_
*883 _0389_
*884 _0390_
*885 _0391_
*886 _0392_
*887 _0393_
*888 _0394_
*889 _0395_
*890 _0396_
*891 _0397_
*892 _0398_
*893 _0399_
*894 _0400_
*895 _0401_
*896 _0402_
*897 _0403_
*898 _0404_
*899 _0405_
*900 _0406_
*901 _0407_
*902 _0408_
*903 _0409_
*904 _0410_
*905 _0411_
*906 _0412_
*907 _0413_
*908 _0414_
*909 _0415_
*910 _0416_
*911 _0417_
*912 _0418_
*913 _0419_
*914 _0420_
*915 _0421_
*916 _0422_
*917 _0423_
*918 _0424_
*919 _0425_
*920 _0426_
*921 _0427_
*922 _0428_
*923 _0429_
*924 _0430_
*925 _0431_
*926 _0432_
*927 _0433_
*928 _0434_
*929 _0435_
*930 _0436_
*931 _0437_
*932 _0438_
*933 _0439_
*934 _0440_
*935 _0441_
*936 _0442_
*937 _0443_
*938 _0444_
*939 _0445_
*940 _0446_
*941 _0447_
*942 _0448_
*943 _0449_
*944 _0450_
*945 _0451_
*946 _0452_
*947 _0453_
*948 _0454_
*949 _0455_
*950 _0456_
*951 _0457_
*952 _0458_
*953 _0459_
*954 _0460_
*955 _0461_
*956 _0462_
*957 _0463_
*958 _0464_
*959 _0465_
*960 _0466_
*961 _0467_
*962 _0468_
*963 _0469_
*964 _0470_
*965 _0471_
*966 _0472_
*967 _0473_
*968 _0474_
*969 _0475_
*970 _0476_
*971 _0477_
*972 _0478_
*973 _0479_
*974 _0480_
*975 _0481_
*976 _0482_
*977 _0483_
*978 _0484_
*979 _0485_
*980 _0486_
*981 _0487_
*982 _0488_
*983 _0489_
*984 _0490_
*985 _0491_
*986 _0492_
*987 _0493_
*988 _0494_
*989 _0495_
*990 _0496_
*991 _0497_
*992 _0498_
*993 _0499_
*994 _0500_
*995 _0501_
*996 _0502_
*997 _0503_
*998 _0504_
*999 _0505_
*1000 _0506_
*1001 _0507_
*1002 _0508_
*1003 _0509_
*1004 _0510_
*1005 _0511_
*1006 _0512_
*1007 _0513_
*1008 _0514_
*1009 _0515_
*1010 _0516_
*1011 _0517_
*1012 _0518_
*1013 _0519_
*1014 _0520_
*1015 _0521_
*1016 _0522_
*1017 _0523_
*1018 _0524_
*1019 _0525_
*1020 _0526_
*1021 _0527_
*1022 _0528_
*1023 _0529_
*1024 _0530_
*1025 _0531_
*1026 _0532_
*1027 _0533_
*1028 _0534_
*1029 _0535_
*1030 _0536_
*1031 _0537_
*1032 _0538_
*1033 _0539_
*1034 _0540_
*1035 _0541_
*1036 _0542_
*1037 _0543_
*1038 _0544_
*1039 _0545_
*1040 _0546_
*1041 _0547_
*1042 _0548_
*1043 _0549_
*1044 _0550_
*1045 _0551_
*1046 _0552_
*1047 _0553_
*1048 _0554_
*1049 _0555_
*1050 _0556_
*1051 _0557_
*1052 _0558_
*1053 _0559_
*1054 _0560_
*1055 _0561_
*1056 _0562_
*1057 _0563_
*1058 _0564_
*1059 _0565_
*1060 _0566_
*1061 _0567_
*1062 _0568_
*1063 _0569_
*1064 _0570_
*1065 _0571_
*1066 _0572_
*1067 _0573_
*1068 _0574_
*1069 _0575_
*1070 _0576_
*1071 _0577_
*1072 _0578_
*1073 _0579_
*1074 _0580_
*1075 _0581_
*1076 _0582_
*1077 _0583_
*1078 _0584_
*1079 _0585_
*1080 _0586_
*1081 _0587_
*1082 _0588_
*1083 _0589_
*1084 _0590_
*1085 _0591_
*1086 _0592_
*1087 _0593_
*1088 _0594_
*1089 _0595_
*1090 _0596_
*1091 _0597_
*1092 _0598_
*1093 _0599_
*1094 _0600_
*1095 _0601_
*1096 _0602_
*1097 _0603_
*1098 _0604_
*1099 _0605_
*1100 _0606_
*1101 _0607_
*1102 _0608_
*1103 _0609_
*1104 _0610_
*1105 _0611_
*1106 _0612_
*1107 _0613_
*1108 _0614_
*1109 _0615_
*1110 _0616_
*1111 _0617_
*1112 _0618_
*1113 _0619_
*1114 _0620_