*SPEF "ieee 1481-1999"
*DESIGN "team_01"
*DATE "22:19:11 Thursday March 05, 2026"
*VENDOR "The OpenROAD Project"
*PROGRAM "OpenROAD"
*VERSION "edf00dff99f6c40d67a30c0e22a8191c5d2ed9d6"
*DESIGN_FLOW "NAME_SCOPE LOCAL" "PIN_CAP NONE"
*DIVIDER /
*DELIMITER :
*BUS_DELIMITER []
*T_UNIT 1 NS
*C_UNIT 1 PF
*R_UNIT 1 OHM
*L_UNIT 1 HENRY

*NAME_MAP
*1 clk
*2 en
*3 gpio_in[0]
*4 gpio_in[10]
*5 gpio_in[11]
*6 gpio_in[12]
*7 gpio_in[13]
*8 gpio_in[14]
*9 gpio_in[15]
*10 gpio_in[16]
*11 gpio_in[17]
*12 gpio_in[18]
*13 gpio_in[19]
*14 gpio_in[1]
*15 gpio_in[20]
*16 gpio_in[21]
*17 gpio_in[22]
*18 gpio_in[23]
*19 gpio_in[24]
*20 gpio_in[25]
*21 gpio_in[26]
*22 gpio_in[27]
*23 gpio_in[28]
*24 gpio_in[29]
*25 gpio_in[2]
*26 gpio_in[30]
*27 gpio_in[31]
*28 gpio_in[32]
*29 gpio_in[33]
*30 gpio_in[3]
*31 gpio_in[4]
*32 gpio_in[5]
*33 gpio_in[6]
*34 gpio_in[7]
*35 gpio_in[8]
*36 gpio_in[9]
*37 net64
*38 net74
*39 net75
*40 net76
*41 net77
*42 net78
*43 net79
*44 net80
*45 net81
*46 net82
*47 net83
*48 net65
*49 net84
*50 net85
*51 net86
*52 net87
*53 net88
*54 net89
*55 net90
*56 net91
*57 net92
*58 net93
*59 net66
*60 net94
*61 net95
*62 net96
*63 net97
*64 net67
*65 net68
*66 net69
*67 net70
*68 net71
*69 net72
*70 net73
*71 net42
*72 gpio_out[10]
*73 gpio_out[11]
*74 gpio_out[12]
*75 gpio_out[13]
*76 gpio_out[14]
*77 net50
*78 gpio_out[16]
*79 gpio_out[17]
*80 gpio_out[18]
*81 gpio_out[19]
*82 net43
*83 gpio_out[20]
*84 net51
*85 net52
*86 net53
*87 net54
*88 net55
*89 net56
*90 net57
*91 net58
*92 net59
*93 net44
*94 net60
*95 net61
*96 net62
*97 net63
*98 net45
*99 net46
*100 net47
*101 net48
*102 net49
*103 gpio_out[8]
*104 gpio_out[9]
*105 nrst
*108 TOP\.top_rng_inst\.display\.current_data\[0\]
*109 TOP\.top_rng_inst\.display\.current_data\[1\]
*110 TOP\.top_rng_inst\.display\.current_data\[2\]
*111 TOP\.top_rng_inst\.display\.current_data\[3\]
*112 TOP\.top_rng_inst\.display\.datas\[0\]
*113 TOP\.top_rng_inst\.display\.datas\[10\]
*114 TOP\.top_rng_inst\.display\.datas\[11\]
*115 TOP\.top_rng_inst\.display\.datas\[12\]
*116 TOP\.top_rng_inst\.display\.datas\[13\]
*117 TOP\.top_rng_inst\.display\.datas\[14\]
*118 TOP\.top_rng_inst\.display\.datas\[15\]
*119 TOP\.top_rng_inst\.display\.datas\[1\]
*120 TOP\.top_rng_inst\.display\.datas\[2\]
*121 TOP\.top_rng_inst\.display\.datas\[3\]
*122 TOP\.top_rng_inst\.display\.datas\[4\]
*123 TOP\.top_rng_inst\.display\.datas\[5\]
*124 TOP\.top_rng_inst\.display\.datas\[6\]
*125 TOP\.top_rng_inst\.display\.datas\[7\]
*126 TOP\.top_rng_inst\.display\.datas\[8\]
*127 TOP\.top_rng_inst\.display\.datas\[9\]
*128 TOP\.top_rng_inst\.display\.psc\.rollover_flag
*129 TOP\.top_rng_inst\.ecstate\.count_out\[0\]
*130 TOP\.top_rng_inst\.ecstate\.count_out\[1\]
*131 TOP\.top_rng_inst\.ecstate\.count_out\[2\]
*132 TOP\.top_rng_inst\.ecstate\.count_out\[3\]
*133 TOP\.top_rng_inst\.ecstate\.count_out\[4\]
*134 TOP\.top_rng_inst\.ecstate\.count_out\[5\]
*135 TOP\.top_rng_inst\.ecstate\.count_out\[6\]
*136 TOP\.top_rng_inst\.ecstate\.count_out\[7\]
*137 TOP\.top_rng_inst\.ecstate\.count_out\[8\]
*138 TOP\.top_rng_inst\.ecstate\.next_count\[0\]
*139 TOP\.top_rng_inst\.ecstate\.next_count\[1\]
*140 TOP\.top_rng_inst\.ecstate\.next_count\[2\]
*141 TOP\.top_rng_inst\.ecstate\.next_count\[3\]
*142 TOP\.top_rng_inst\.ecstate\.next_count\[4\]
*143 TOP\.top_rng_inst\.ecstate\.next_count\[5\]
*144 TOP\.top_rng_inst\.ecstate\.next_count\[6\]
*145 TOP\.top_rng_inst\.ecstate\.next_count\[7\]
*146 TOP\.top_rng_inst\.ecstate\.next_count\[8\]
*147 TOP\.top_rng_inst\.ecstate\.next_flag
*148 TOP\.top_rng_inst\.ecstate\.rollover_flag
*149 TOP\.top_rng_inst\.k1\.clk_psc
*150 TOP\.top_rng_inst\.k1\.n_keypad_col\[0\]
*151 TOP\.top_rng_inst\.k1\.n_keypad_col\[1\]
*152 TOP\.top_rng_inst\.k1\.psc\.count_out\[0\]
*153 TOP\.top_rng_inst\.k1\.psc\.count_out\[1\]
*154 TOP\.top_rng_inst\.k1\.psc\.count_out\[2\]
*155 TOP\.top_rng_inst\.k1\.psc\.count_out\[3\]
*156 TOP\.top_rng_inst\.k1\.psc\.next_count\[0\]
*157 TOP\.top_rng_inst\.k1\.psc\.next_count\[1\]
*158 TOP\.top_rng_inst\.k1\.psc\.next_count\[2\]
*159 TOP\.top_rng_inst\.k1\.psc\.next_count\[3\]
*160 TOP\.top_rng_inst\.k1\.psc\.next_flag
*161 TOP\.top_rng_inst\.k1\.sync_r0\.n_sr\[1\]
*162 TOP\.top_rng_inst\.k1\.sync_r0\.sync
*163 TOP\.top_rng_inst\.k1\.sync_r1\.n_sr\[1\]
*164 TOP\.top_rng_inst\.k1\.sync_r1\.sync
*165 TOP\.top_rng_inst\.k1\.sync_r2\.n_sr\[1\]
*166 TOP\.top_rng_inst\.k1\.sync_r2\.sync
*167 TOP\.top_rng_inst\.k1\.sync_r3\.n_sr\[1\]
*168 TOP\.top_rng_inst\.k1\.sync_r3\.sync
*169 TOP\.top_rng_inst\.lut1\.ecstate\.count_out\[0\]
*170 TOP\.top_rng_inst\.lut1\.ecstate\.count_out\[1\]
*171 TOP\.top_rng_inst\.lut1\.ecstate\.count_out\[2\]
*172 TOP\.top_rng_inst\.lut1\.ecstate\.count_out\[3\]
*173 TOP\.top_rng_inst\.lut1\.ecstate\.count_out\[4\]
*174 TOP\.top_rng_inst\.lut1\.ecstate\.count_out\[5\]
*175 TOP\.top_rng_inst\.lut1\.ecstate\.next_count\[0\]
*176 TOP\.top_rng_inst\.lut1\.ecstate\.next_count\[1\]
*177 TOP\.top_rng_inst\.lut1\.ecstate\.next_count\[2\]
*178 TOP\.top_rng_inst\.lut1\.ecstate\.next_count\[3\]
*179 TOP\.top_rng_inst\.lut1\.ecstate\.next_count\[4\]
*180 TOP\.top_rng_inst\.lut1\.ecstate\.next_count\[5\]
*181 TOP\.top_rng_inst\.lut1\.ecstate\.next_flag
*182 TOP\.top_rng_inst\.lut1\.ecstate\.rollover_flag
*183 TOP\.top_rng_inst\.lut1\.internal_state\[0\]
*184 TOP\.top_rng_inst\.lut1\.internal_state\[10\]
*185 TOP\.top_rng_inst\.lut1\.internal_state\[11\]
*186 TOP\.top_rng_inst\.lut1\.internal_state\[12\]
*187 TOP\.top_rng_inst\.lut1\.internal_state\[13\]
*188 TOP\.top_rng_inst\.lut1\.internal_state\[14\]
*189 TOP\.top_rng_inst\.lut1\.internal_state\[15\]
*190 TOP\.top_rng_inst\.lut1\.internal_state\[1\]
*191 TOP\.top_rng_inst\.lut1\.internal_state\[2\]
*192 TOP\.top_rng_inst\.lut1\.internal_state\[3\]
*193 TOP\.top_rng_inst\.lut1\.internal_state\[4\]
*194 TOP\.top_rng_inst\.lut1\.internal_state\[5\]
*195 TOP\.top_rng_inst\.lut1\.internal_state\[6\]
*196 TOP\.top_rng_inst\.lut1\.internal_state\[7\]
*197 TOP\.top_rng_inst\.lut1\.internal_state\[8\]
*198 TOP\.top_rng_inst\.lut1\.internal_state\[9\]
*199 TOP\.top_rng_inst\.lut1\.started
*200 _000_
*201 _001_
*202 _002_
*203 _003_
*204 _004_
*205 _005_
*206 _006_
*207 _007_
*208 _008_
*209 _009_
*210 _010_
*211 _011_
*212 _012_
*213 _013_
*214 _014_
*215 _015_
*216 _016_
*217 _017_
*218 _018_
*219 _019_
*220 _020_
*221 _021_
*222 _022_
*223 _023_
*224 _024_
*225 _025_
*226 _026_
*227 _027_
*228 _028_
*229 _029_
*230 _030_
*231 _031_
*232 _032_
*233 _033_
*234 _034_
*235 _035_
*236 _036_
*237 _037_
*238 _038_
*239 _039_
*240 _040_
*241 _041_
*242 _042_
*243 _043_
*244 _044_
*245 _045_
*246 _046_
*247 _047_
*248 _048_
*249 _049_
*250 _050_
*251 _051_
*252 _052_
*253 _053_
*254 _054_
*255 _055_
*256 _056_
*257 _057_
*258 _058_
*259 _059_
*260 _060_
*261 _061_
*262 _062_
*263 _063_
*264 _064_
*265 _065_
*266 _066_
*267 _067_
*268 _068_
*269 _069_
*270 _070_
*271 _071_
*272 _072_
*273 _073_
*274 _074_
*275 _075_
*276 _076_
*277 _077_
*278 _078_
*279 _079_
*280 _080_
*281 _081_
*282 _082_
*283 _083_
*284 _084_
*285 _085_
*286 _086_
*287 _087_
*288 _088_
*289 _089_
*290 _090_
*291 _091_
*292 _092_
*293 _093_
*294 _094_
*295 _095_
*296 _096_
*297 _097_
*298 _098_
*299 _099_
*300 _100_
*301 _101_
*302 _102_
*303 _103_
*304 _104_
*305 _105_
*306 _106_
*307 _107_
*308 _108_
*309 _109_
*310 _110_
*311 _111_
*312 _112_
*313 _113_
*314 _114_
*315 _115_
*316 _116_
*317 _117_
*318 _118_
*319 _119_
*320 _120_
*321 _121_
*322 _122_
*323 _123_
*324 _124_
*325 _125_
*326 _126_
*327 _127_
*328 _128_
*329 _129_
*330 _130_
*331 _131_
*332 _132_
*333 _133_
*334 _134_
*335 _135_
*336 _136_
*337 _137_
*338 _138_
*339 _139_
*340 _140_
*341 _141_
*342 _142_
*343 _143_
*344 _144_
*345 _145_
*346 _146_
*347 _147_
*348 _148_
*349 _149_
*350 _150_
*351 _151_
*352 _152_
*353 _153_
*354 _154_
*355 _155_
*356 _156_
*357 _157_
*358 _158_
*359 _159_
*360 _160_
*361 _161_
*362 _162_
*363 _163_
*364 _164_
*365 _165_
*366 _166_
*367 _167_
*368 _168_
*369 _169_
*370 _170_
*371 _171_
*372 _172_
*373 _173_
*374 _174_
*375 _175_
*376 _176_
*377 _177_
*378 _178_
*379 _179_
*380 _180_
*381 _181_
*382 _182_
*383 _183_
*384 _184_
*385 _185_
*386 _186_
*387 _187_
*388 clknet_0_clk
*389 clknet_3_0__leaf_clk
*390 clknet_3_1__leaf_clk
*391 clknet_3_2__leaf_clk
*392 clknet_3_3__leaf_clk
*393 clknet_3_4__leaf_clk
*394 clknet_3_5__leaf_clk
*395 clknet_3_6__leaf_clk
*396 clknet_3_7__leaf_clk
*397 net1
*398 net10
*399 net100
*400 net101
*401 net102
*402 net103
*403 net104
*404 net105
*405 net106
*406 net107
*407 net108
*408 net109
*409 net11
*410 net110
*411 net111
*412 net112
*413 net113
*414 net114
*415 net115
*416 net116
*417 net117
*418 net118
*419 net119
*420 net12
*421 net120
*422 net121
*423 net122
*424 net123
*425 net124
*426 net125
*427 net126
*428 net127
*429 net128
*430 net129
*431 net13
*432 net130
*433 net131
*434 net132
*435 net133
*436 net134
*437 net135
*438 net136
*439 net137
*440 net138
*441 net139
*442 net14
*443 net140
*444 net141
*445 net142
*446 net143
*447 net144
*448 net145
*449 net15
*450 net16
*451 net17
*452 net18
*453 net19
*454 net2
*455 net20
*456 net21
*457 net22
*458 net23
*459 net24
*460 net25
*461 net26
*462 net27
*463 net28
*464 net29
*465 net3
*466 net30
*467 net31
*468 net32
*469 net33
*470 net34
*471 net35
*472 net36
*473 net37
*474 net38
*475 net39
*476 net4
*477 net40
*478 net41
*479 net5
*480 net6
*481 net7
*482 net8
*483 net9
*484 net98
*485 net99
*486 ANTENNA__265__A0
*487 ANTENNA__280__A
*488 ANTENNA__283__A0
*489 ANTENNA__284__S
*490 ANTENNA__287__B
*491 ANTENNA__294__B
*492 ANTENNA__297__S0
*493 ANTENNA__315__B
*494 ANTENNA__323__A
*495 ANTENNA__336__A
*496 ANTENNA__347__A
*497 ANTENNA__351__A
*498 ANTENNA__358__A
*499 ANTENNA__373__B1
*500 ANTENNA__374__A1
*501 ANTENNA__374__A2
*502 ANTENNA__376__A
*503 ANTENNA__377__B1
*504 ANTENNA__378__A
*505 ANTENNA__379__B1
*506 ANTENNA__380__A
*507 ANTENNA__381__B1
*508 ANTENNA__382__A
*509 ANTENNA__383__B1
*510 ANTENNA__384__A
*511 ANTENNA__385__B1
*512 ANTENNA__386__A
*513 ANTENNA__387__A1
*514 ANTENNA__387__B1
*515 ANTENNA__389__B2
*516 ANTENNA__395__B1
*517 ANTENNA__397__B1
*518 ANTENNA__399__B1
*519 ANTENNA__404__A
*520 ANTENNA__455__Q
*521 ANTENNA__457__RESET_B
*522 ANTENNA__459__RESET_B
*523 ANTENNA_clkbuf_0_clk_A
*524 ANTENNA_clkbuf_0_clk_X
*525 ANTENNA_clkbuf_3_0__f_clk_A
*526 ANTENNA_clkbuf_3_1__f_clk_A
*527 ANTENNA_clkbuf_3_2__f_clk_A
*528 ANTENNA_clkbuf_3_3__f_clk_A
*529 ANTENNA_clkbuf_3_4__f_clk_A
*530 ANTENNA_clkbuf_3_5__f_clk_A
*531 ANTENNA_clkbuf_3_6__f_clk_A
*532 ANTENNA_clkbuf_3_7__f_clk_A
*533 ANTENNA_fanout18_X
*534 ANTENNA_fanout26_A
*535 ANTENNA_fanout27_X
*536 ANTENNA_fanout28_A
*537 ANTENNA_fanout29_X
*538 ANTENNA_fanout34_A
*539 ANTENNA_fanout36_A
*540 ANTENNA_fanout38_A
*541 ANTENNA_fanout40_A
*542 ANTENNA_fanout41_X
*543 ANTENNA_input1_A
*544 ANTENNA_input2_A
*545 ANTENNA_input3_A
*546 ANTENNA_input4_A
*547 ANTENNA_input5_A
*548 FILLER_0_101
*549 FILLER_0_109
*550 FILLER_0_111
*551 FILLER_0_113
*552 FILLER_0_12
*553 FILLER_0_125
*554 FILLER_0_137
*555 FILLER_0_139
*556 FILLER_0_161
*557 FILLER_0_165
*558 FILLER_0_167
*559 FILLER_0_169
*560 FILLER_0_181
*561 FILLER_0_193
*562 FILLER_0_195
*563 FILLER_0_197
*564 FILLER_0_201
*565 FILLER_0_24
*566 FILLER_0_29
*567 FILLER_0_41
*568 FILLER_0_53
*569 FILLER_0_55
*570 FILLER_0_57
*571 FILLER_0_89
*572 FILLER_10_101
*573 FILLER_10_103
*574 FILLER_10_106
*575 FILLER_10_116
*576 FILLER_10_125
*577 FILLER_10_13
*578 FILLER_10_137
*579 FILLER_10_139
*580 FILLER_10_141
*581 FILLER_10_149
*582 FILLER_10_178
*583 FILLER_10_186
*584 FILLER_10_197
*585 FILLER_10_206
*586 FILLER_10_208
*587 FILLER_10_25
*588 FILLER_10_27
*589 FILLER_10_37
*590 FILLER_10_41
*591 FILLER_10_43
*592 FILLER_10_66
*593 FILLER_10_70
*594 FILLER_10_77
*595 FILLER_10_81
*596 FILLER_10_83
*597 FILLER_10_85
*598 FILLER_10_97
*599 FILLER_11_108
*600 FILLER_11_116
*601 FILLER_11_124
*602 FILLER_11_128
*603 FILLER_11_140
*604 FILLER_11_152
*605 FILLER_11_20
*606 FILLER_11_49
*607 FILLER_11_8
*608 FILLER_11_87
*609 FILLER_11_96
*610 FILLER_12_102
*611 FILLER_12_106
*612 FILLER_12_123
*613 FILLER_12_131
*614 FILLER_12_139
*615 FILLER_12_150
*616 FILLER_12_166
*617 FILLER_12_178
*618 FILLER_12_190
*619 FILLER_12_194
*620 FILLER_12_197
*621 FILLER_12_23
*622 FILLER_12_27
*623 FILLER_12_29
*624 FILLER_12_71
*625 FILLER_12_98
*626 FILLER_13_108
*627 FILLER_13_113
*628 FILLER_13_120
*629 FILLER_13_167
*630 FILLER_13_169
*631 FILLER_13_179
*632 FILLER_13_196
*633 FILLER_13_204
*634 FILLER_13_206
*635 FILLER_13_23
*636 FILLER_13_25
*637 FILLER_13_46
*638 FILLER_13_52
*639 FILLER_13_57
*640 FILLER_13_69
*641 FILLER_13_73
*642 FILLER_13_75
*643 FILLER_14_121
*644 FILLER_14_133
*645 FILLER_14_137
*646 FILLER_14_139
*647 FILLER_14_141
*648 FILLER_14_149
*649 FILLER_14_190
*650 FILLER_14_194
*651 FILLER_14_197
*652 FILLER_14_20
*653 FILLER_14_201
*654 FILLER_14_37
*655 FILLER_14_41
*656 FILLER_14_43
*657 FILLER_14_79
*658 FILLER_14_8
*659 FILLER_14_83
*660 FILLER_14_85
*661 FILLER_14_98
*662 FILLER_15_106
*663 FILLER_15_11
*664 FILLER_15_110
*665 FILLER_15_113
*666 FILLER_15_132
*667 FILLER_15_148
*668 FILLER_15_160
*669 FILLER_15_169
*670 FILLER_15_17
*671 FILLER_15_177
*672 FILLER_15_179
*673 FILLER_15_27
*674 FILLER_15_3
*675 FILLER_15_39
*676 FILLER_15_51
*677 FILLER_15_55
*678 FILLER_15_57
*679 FILLER_15_68
*680 FILLER_15_94
*681 FILLER_15_98
*682 FILLER_16_130
*683 FILLER_16_141
*684 FILLER_16_143
*685 FILLER_16_165
*686 FILLER_16_169
*687 FILLER_16_182
*688 FILLER_16_211
*689 FILLER_16_23
*690 FILLER_16_27
*691 FILLER_16_29
*692 FILLER_16_50
*693 FILLER_16_52
*694 FILLER_16_70
*695 FILLER_16_87
*696 FILLER_16_91
*697 FILLER_17_110
*698 FILLER_17_113
*699 FILLER_17_145
*700 FILLER_17_15
*701 FILLER_17_169
*702 FILLER_17_176
*703 FILLER_17_188
*704 FILLER_17_20
*705 FILLER_17_3
*706 FILLER_17_40
*707 FILLER_17_52
*708 FILLER_17_57
*709 FILLER_17_65
*710 FILLER_17_67
*711 FILLER_17_86
*712 FILLER_17_88
*713 FILLER_18_11
*714 FILLER_18_129
*715 FILLER_18_13
*716 FILLER_18_137
*717 FILLER_18_139
*718 FILLER_18_141
*719 FILLER_18_145
*720 FILLER_18_167
*721 FILLER_18_20
*722 FILLER_18_205
*723 FILLER_18_3
*724 FILLER_18_37
*725 FILLER_18_45
*726 FILLER_18_83
*727 FILLER_18_85
*728 FILLER_18_93
*729 FILLER_18_97
*730 FILLER_19_102
*731 FILLER_19_110
*732 FILLER_19_113
*733 FILLER_19_133
*734 FILLER_19_140
*735 FILLER_19_157
*736 FILLER_19_162
*737 FILLER_19_166
*738 FILLER_19_169
*739 FILLER_19_171
*740 FILLER_19_175
*741 FILLER_19_187
*742 FILLER_19_26
*743 FILLER_19_34
*744 FILLER_19_36
*745 FILLER_19_45
*746 FILLER_19_53
*747 FILLER_19_55
*748 FILLER_19_78
*749 FILLER_19_90
*750 FILLER_19_92
*751 FILLER_1_102
*752 FILLER_1_110
*753 FILLER_1_120
*754 FILLER_1_142
*755 FILLER_1_146
*756 FILLER_1_169
*757 FILLER_1_173
*758 FILLER_1_18
*759 FILLER_1_195
*760 FILLER_1_203
*761 FILLER_1_205
*762 FILLER_1_39
*763 FILLER_1_51
*764 FILLER_1_55
*765 FILLER_1_57
*766 FILLER_1_6
*767 FILLER_1_65
*768 FILLER_1_69
*769 FILLER_1_98
*770 FILLER_20_11
*771 FILLER_20_174
*772 FILLER_20_178
*773 FILLER_20_18
*774 FILLER_20_191
*775 FILLER_20_195
*776 FILLER_20_197
*777 FILLER_20_199
*778 FILLER_20_22
*779 FILLER_20_3
*780 FILLER_20_77
*781 FILLER_21_100
*782 FILLER_21_11
*783 FILLER_21_121
*784 FILLER_21_139
*785 FILLER_21_143
*786 FILLER_21_145
*787 FILLER_21_18
*788 FILLER_21_194
*789 FILLER_21_206
*790 FILLER_21_3
*791 FILLER_21_30
*792 FILLER_21_42
*793 FILLER_21_52
*794 FILLER_21_57
*795 FILLER_21_61
*796 FILLER_21_63
*797 FILLER_21_71
*798 FILLER_21_79
*799 FILLER_21_81
*800 FILLER_22_102
*801 FILLER_22_110
*802 FILLER_22_141
*803 FILLER_22_145
*804 FILLER_22_155
*805 FILLER_22_179
*806 FILLER_22_191
*807 FILLER_22_195
*808 FILLER_22_197
*809 FILLER_22_24
*810 FILLER_22_3
*811 FILLER_22_35
*812 FILLER_22_43
*813 FILLER_22_85
*814 FILLER_23_111
*815 FILLER_23_122
*816 FILLER_23_15
*817 FILLER_23_156
*818 FILLER_23_184
*819 FILLER_23_192
*820 FILLER_23_194
*821 FILLER_23_203
*822 FILLER_23_211
*823 FILLER_23_3
*824 FILLER_23_57
*825 FILLER_23_65
*826 FILLER_24_10
*827 FILLER_24_115
*828 FILLER_24_12
*829 FILLER_24_125
*830 FILLER_24_127
*831 FILLER_24_150
*832 FILLER_24_162
*833 FILLER_24_174
*834 FILLER_24_182
*835 FILLER_24_184
*836 FILLER_24_20
*837 FILLER_24_29
*838 FILLER_24_59
*839 FILLER_24_6
*840 FILLER_24_83
*841 FILLER_24_85
*842 FILLER_25_109
*843 FILLER_25_111
*844 FILLER_25_113
*845 FILLER_25_143
*846 FILLER_25_176
*847 FILLER_25_184
*848 FILLER_25_24
*849 FILLER_25_3
*850 FILLER_25_47
*851 FILLER_25_55
*852 FILLER_25_57
*853 FILLER_25_61
*854 FILLER_25_85
*855 FILLER_25_89
*856 FILLER_25_95
*857 FILLER_26_108
*858 FILLER_26_126
*859 FILLER_26_138
*860 FILLER_26_141
*861 FILLER_26_153
*862 FILLER_26_161
*863 FILLER_26_163
*864 FILLER_26_174
*865 FILLER_26_186
*866 FILLER_26_190
*867 FILLER_26_192
*868 FILLER_26_205
*869 FILLER_26_207
*870 FILLER_26_21
*871 FILLER_26_25
*872 FILLER_26_27
*873 FILLER_26_29
*874 FILLER_26_33
*875 FILLER_26_43
*876 FILLER_26_55
*877 FILLER_26_83
*878 FILLER_26_85
*879 FILLER_26_87
*880 FILLER_26_9
*881 FILLER_26_96
*882 FILLER_27_108
*883 FILLER_27_113
*884 FILLER_27_125
*885 FILLER_27_169
*886 FILLER_27_18
*887 FILLER_27_181
*888 FILLER_27_185
*889 FILLER_27_207
*890 FILLER_27_30
*891 FILLER_27_35
*892 FILLER_27_37
*893 FILLER_27_46
*894 FILLER_27_54
*895 FILLER_27_57
*896 FILLER_27_6
*897 FILLER_27_69
*898 FILLER_28_112
*899 FILLER_28_127
*900 FILLER_28_139
*901 FILLER_28_141
*902 FILLER_28_15
*903 FILLER_28_153
*904 FILLER_28_165
*905 FILLER_28_19
*906 FILLER_28_190
*907 FILLER_28_192
*908 FILLER_28_203
*909 FILLER_28_211
*910 FILLER_28_23
*911 FILLER_28_29
*912 FILLER_28_3
*913 FILLER_28_83
*914 FILLER_28_85
*915 FILLER_28_89
*916 FILLER_29_111
*917 FILLER_29_117
*918 FILLER_29_121
*919 FILLER_29_123
*920 FILLER_29_144
*921 FILLER_29_156
*922 FILLER_29_188
*923 FILLER_29_200
*924 FILLER_29_208
*925 FILLER_29_39
*926 FILLER_29_51
*927 FILLER_29_55
*928 FILLER_29_57
*929 FILLER_29_59
*930 FILLER_29_6
*931 FILLER_29_72
*932 FILLER_29_74
*933 FILLER_29_95
*934 FILLER_29_99
*935 FILLER_2_129
*936 FILLER_2_138
*937 FILLER_2_141
*938 FILLER_2_145
*939 FILLER_2_147
*940 FILLER_2_158
*941 FILLER_2_174
*942 FILLER_2_18
*943 FILLER_2_192
*944 FILLER_2_197
*945 FILLER_2_22
*946 FILLER_2_26
*947 FILLER_2_37
*948 FILLER_2_41
*949 FILLER_2_6
*950 FILLER_2_62
*951 FILLER_2_74
*952 FILLER_2_82
*953 FILLER_2_85
*954 FILLER_30_104
*955 FILLER_30_129
*956 FILLER_30_137
*957 FILLER_30_139
*958 FILLER_30_141
*959 FILLER_30_165
*960 FILLER_30_185
*961 FILLER_30_193
*962 FILLER_30_195
*963 FILLER_30_197
*964 FILLER_30_205
*965 FILLER_30_21
*966 FILLER_30_25
*967 FILLER_30_27
*968 FILLER_30_37
*969 FILLER_30_75
*970 FILLER_30_82
*971 FILLER_30_85
*972 FILLER_30_87
*973 FILLER_30_9
*974 FILLER_30_96
*975 FILLER_31_113
*976 FILLER_31_132
*977 FILLER_31_139
*978 FILLER_31_141
*979 FILLER_31_146
*980 FILLER_31_15
*981 FILLER_31_153
*982 FILLER_31_165
*983 FILLER_31_167
*984 FILLER_31_169
*985 FILLER_31_175
*986 FILLER_31_177
*987 FILLER_31_182
*988 FILLER_31_184
*989 FILLER_31_189
*990 FILLER_31_191
*991 FILLER_31_195
*992 FILLER_31_197
*993 FILLER_31_199
*994 FILLER_31_27
*995 FILLER_31_29
*996 FILLER_31_37
*997 FILLER_31_41
*998 FILLER_31_53
*999 FILLER_31_55
*1000 FILLER_31_57
*1001 FILLER_31_65
*1002 FILLER_31_72
*1003 FILLER_31_85
*1004 FILLER_31_97
*1005 FILLER_3_113
*1006 FILLER_3_117
*1007 FILLER_3_124
*1008 FILLER_3_134
*1009 FILLER_3_142
*1010 FILLER_3_144
*1011 FILLER_3_15
*1012 FILLER_3_152
*1013 FILLER_3_164
*1014 FILLER_3_186
*1015 FILLER_3_19
*1016 FILLER_3_198
*1017 FILLER_3_21
*1018 FILLER_3_210
*1019 FILLER_3_3
*1020 FILLER_3_49
*1021 FILLER_3_53
*1022 FILLER_3_55
*1023 FILLER_3_57
*1024 FILLER_3_69
*1025 FILLER_3_77
*1026 FILLER_3_88
*1027 FILLER_4_108
*1028 FILLER_4_116
*1029 FILLER_4_118
*1030 FILLER_4_125
*1031 FILLER_4_13
*1032 FILLER_4_137
*1033 FILLER_4_139
*1034 FILLER_4_141
*1035 FILLER_4_145
*1036 FILLER_4_158
*1037 FILLER_4_170
*1038 FILLER_4_172
*1039 FILLER_4_175
*1040 FILLER_4_183
*1041 FILLER_4_185
*1042 FILLER_4_193
*1043 FILLER_4_195
*1044 FILLER_4_197
*1045 FILLER_4_20
*1046 FILLER_4_29
*1047 FILLER_4_41
*1048 FILLER_4_53
*1049 FILLER_4_70
*1050 FILLER_4_74
*1051 FILLER_4_83
*1052 FILLER_4_85
*1053 FILLER_4_89
*1054 FILLER_4_9
*1055 FILLER_4_96
*1056 FILLER_5_103
*1057 FILLER_5_113
*1058 FILLER_5_117
*1059 FILLER_5_146
*1060 FILLER_5_169
*1061 FILLER_5_200
*1062 FILLER_5_208
*1063 FILLER_5_55
*1064 FILLER_5_83
*1065 FILLER_5_95
*1066 FILLER_6_103
*1067 FILLER_6_117
*1068 FILLER_6_125
*1069 FILLER_6_134
*1070 FILLER_6_138
*1071 FILLER_6_141
*1072 FILLER_6_156
*1073 FILLER_6_18
*1074 FILLER_6_189
*1075 FILLER_6_193
*1076 FILLER_6_195
*1077 FILLER_6_197
*1078 FILLER_6_205
*1079 FILLER_6_50
*1080 FILLER_6_6
*1081 FILLER_6_62
*1082 FILLER_6_70
*1083 FILLER_6_82
*1084 FILLER_6_91
*1085 FILLER_7_103
*1086 FILLER_7_111
*1087 FILLER_7_113
*1088 FILLER_7_125
*1089 FILLER_7_137
*1090 FILLER_7_15
*1091 FILLER_7_165
*1092 FILLER_7_167
*1093 FILLER_7_169
*1094 FILLER_7_181
*1095 FILLER_7_189
*1096 FILLER_7_191
*1097 FILLER_7_28
*1098 FILLER_7_3
*1099 FILLER_7_45
*1100 FILLER_7_53
*1101 FILLER_7_55
*1102 FILLER_7_66
*1103 FILLER_7_78
*1104 FILLER_7_85
*1105 FILLER_8_106
*1106 FILLER_8_110
*1107 FILLER_8_120
*1108 FILLER_8_124
*1109 FILLER_8_129
*1110 FILLER_8_133
*1111 FILLER_8_137
*1112 FILLER_8_169
*1113 FILLER_8_178
*1114 FILLER_8_190
*1115 FILLER_8_194
*1116 FILLER_8_205
*1117 FILLER_8_209
*1118 FILLER_8_211
*1119 FILLER_8_23
*1120 FILLER_8_27
*1121 FILLER_8_49
*1122 FILLER_9_122
*1123 FILLER_9_127
*1124 FILLER_9_155
*1125 FILLER_9_164
*1126 FILLER_9_205
*1127 FILLER_9_23
*1128 FILLER_9_53
*1129 FILLER_9_55
*1130 FILLER_9_90
*1131 FILLER_9_98
*1132 PHY_EDGE_ROW_0_Left_32
*1133 PHY_EDGE_ROW_0_Right_0
*1134 PHY_EDGE_ROW_10_Left_42
*1135 PHY_EDGE_ROW_10_Right_10
*1136 PHY_EDGE_ROW_11_Left_43
*1137 PHY_EDGE_ROW_11_Right_11
*1138 PHY_EDGE_ROW_12_Left_44
*1139 PHY_EDGE_ROW_12_Right_12
*1140 PHY_EDGE_ROW_13_Left_45
*1141 PHY_EDGE_ROW_13_Right_13
*1142 PHY_EDGE_ROW_14_Left_46
*1143 PHY_EDGE_ROW_14_Right_14
*1144 PHY_EDGE_ROW_15_Left_47
*1145 PHY_EDGE_ROW_15_Right_15
*1146 PHY_EDGE_ROW_16_Left_48
*1147 PHY_EDGE_ROW_16_Right_16
*1148 PHY_EDGE_ROW_17_Left_49
*1149 PHY_EDGE_ROW_17_Right_17
*1150 PHY_EDGE_ROW_18_Left_50
*1151 PHY_EDGE_ROW_18_Right_18
*1152 PHY_EDGE_ROW_19_Left_51
*1153 PHY_EDGE_ROW_19_Right_19
*1154 PHY_EDGE_ROW_1_Left_33
*1155 PHY_EDGE_ROW_1_Right_1
*1156 PHY_EDGE_ROW_20_Left_52
*1157 PHY_EDGE_ROW_20_Right_20
*1158 PHY_EDGE_ROW_21_Left_53
*1159 PHY_EDGE_ROW_21_Right_21
*1160 PHY_EDGE_ROW_22_Left_54
*1161 PHY_EDGE_ROW_22_Right_22
*1162 PHY_EDGE_ROW_23_Left_55
*1163 PHY_EDGE_ROW_23_Right_23
*1164 PHY_EDGE_ROW_24_Left_56
*1165 PHY_EDGE_ROW_24_Right_24
*1166 PHY_EDGE_ROW_25_Left_57
*1167 PHY_EDGE_ROW_25_Right_25
*1168 PHY_EDGE_ROW_26_Left_58
*1169 PHY_EDGE_ROW_26_Right_26
*1170 PHY_EDGE_ROW_27_Left_59
*1171 PHY_EDGE_ROW_27_Right_27
*1172 PHY_EDGE_ROW_28_Left_60
*1173 PHY_EDGE_ROW_28_Right_28
*1174 PHY_EDGE_ROW_29_Left_61
*1175 PHY_EDGE_ROW_29_Right_29
*1176 PHY_EDGE_ROW_2_Left_34
*1177 PHY_EDGE_ROW_2_Right_2
*1178 PHY_EDGE_ROW_30_Left_62
*1179 PHY_EDGE_ROW_30_Right_30
*1180 PHY_EDGE_ROW_31_Left_63
*1181 PHY_EDGE_ROW_31_Right_31
*1182 PHY_EDGE_ROW_3_Left_35
*1183 PHY_EDGE_ROW_3_Right_3
*1184 PHY_EDGE_ROW_4_Left_36
*1185 PHY_EDGE_ROW_4_Right_4
*1186 PHY_EDGE_ROW_5_Left_37
*1187 PHY_EDGE_ROW_5_Right_5
*1188 PHY_EDGE_ROW_6_Left_38
*1189 PHY_EDGE_ROW_6_Right_6
*1190 PHY_EDGE_ROW_7_Left_39
*1191 PHY_EDGE_ROW_7_Right_7
*1192 PHY_EDGE_ROW_8_Left_40
*1193 PHY_EDGE_ROW_8_Right_8
*1194 PHY_EDGE_ROW_9_Left_41
*1195 PHY_EDGE_ROW_9_Right_9
*1196 TAP_TAPCELL_ROW_0_64
*1197 TAP_TAPCELL_ROW_0_65
*1198 TAP_TAPCELL_ROW_0_66
*1199 TAP_TAPCELL_ROW_0_67
*1200 TAP_TAPCELL_ROW_0_68
*1201 TAP_TAPCELL_ROW_0_69
*1202 TAP_TAPCELL_ROW_0_70
*1203 TAP_TAPCELL_ROW_10_102
*1204 TAP_TAPCELL_ROW_10_103
*1205 TAP_TAPCELL_ROW_10_104
*1206 TAP_TAPCELL_ROW_10_105
*1207 TAP_TAPCELL_ROW_11_106
*1208 TAP_TAPCELL_ROW_11_107
*1209 TAP_TAPCELL_ROW_11_108
*1210 TAP_TAPCELL_ROW_12_109
*1211 TAP_TAPCELL_ROW_12_110
*1212 TAP_TAPCELL_ROW_12_111
*1213 TAP_TAPCELL_ROW_12_112
*1214 TAP_TAPCELL_ROW_13_113
*1215 TAP_TAPCELL_ROW_13_114
*1216 TAP_TAPCELL_ROW_13_115
*1217 TAP_TAPCELL_ROW_14_116
*1218 TAP_TAPCELL_ROW_14_117
*1219 TAP_TAPCELL_ROW_14_118
*1220 TAP_TAPCELL_ROW_14_119
*1221 TAP_TAPCELL_ROW_15_120
*1222 TAP_TAPCELL_ROW_15_121
*1223 TAP_TAPCELL_ROW_15_122
*1224 TAP_TAPCELL_ROW_16_123
*1225 TAP_TAPCELL_ROW_16_124
*1226 TAP_TAPCELL_ROW_16_125
*1227 TAP_TAPCELL_ROW_16_126
*1228 TAP_TAPCELL_ROW_17_127
*1229 TAP_TAPCELL_ROW_17_128
*1230 TAP_TAPCELL_ROW_17_129
*1231 TAP_TAPCELL_ROW_18_130
*1232 TAP_TAPCELL_ROW_18_131
*1233 TAP_TAPCELL_ROW_18_132
*1234 TAP_TAPCELL_ROW_18_133
*1235 TAP_TAPCELL_ROW_19_134
*1236 TAP_TAPCELL_ROW_19_135
*1237 TAP_TAPCELL_ROW_19_136
*1238 TAP_TAPCELL_ROW_1_71
*1239 TAP_TAPCELL_ROW_1_72
*1240 TAP_TAPCELL_ROW_1_73
*1241 TAP_TAPCELL_ROW_20_137
*1242 TAP_TAPCELL_ROW_20_138
*1243 TAP_TAPCELL_ROW_20_139
*1244 TAP_TAPCELL_ROW_20_140
*1245 TAP_TAPCELL_ROW_21_141
*1246 TAP_TAPCELL_ROW_21_142
*1247 TAP_TAPCELL_ROW_21_143
*1248 TAP_TAPCELL_ROW_22_144
*1249 TAP_TAPCELL_ROW_22_145
*1250 TAP_TAPCELL_ROW_22_146
*1251 TAP_TAPCELL_ROW_22_147
*1252 TAP_TAPCELL_ROW_23_148
*1253 TAP_TAPCELL_ROW_23_149
*1254 TAP_TAPCELL_ROW_23_150
*1255 TAP_TAPCELL_ROW_24_151
*1256 TAP_TAPCELL_ROW_24_152
*1257 TAP_TAPCELL_ROW_24_153
*1258 TAP_TAPCELL_ROW_24_154
*1259 TAP_TAPCELL_ROW_25_155
*1260 TAP_TAPCELL_ROW_25_156
*1261 TAP_TAPCELL_ROW_25_157
*1262 TAP_TAPCELL_ROW_26_158
*1263 TAP_TAPCELL_ROW_26_159
*1264 TAP_TAPCELL_ROW_26_160
*1265 TAP_TAPCELL_ROW_26_161
*1266 TAP_TAPCELL_ROW_27_162
*1267 TAP_TAPCELL_ROW_27_163
*1268 TAP_TAPCELL_ROW_27_164
*1269 TAP_TAPCELL_ROW_28_165
*1270 TAP_TAPCELL_ROW_28_166
*1271 TAP_TAPCELL_ROW_28_167
*1272 TAP_TAPCELL_ROW_28_168
*1273 TAP_TAPCELL_ROW_29_169
*1274 TAP_TAPCELL_ROW_29_170
*1275 TAP_TAPCELL_ROW_29_171
*1276 TAP_TAPCELL_ROW_2_74
*1277 TAP_TAPCELL_ROW_2_75
*1278 TAP_TAPCELL_ROW_2_76
*1279 TAP_TAPCELL_ROW_2_77
*1280 TAP_TAPCELL_ROW_30_172
*1281 TAP_TAPCELL_ROW_30_173
*1282 TAP_TAPCELL_ROW_30_174
*1283 TAP_TAPCELL_ROW_30_175
*1284 TAP_TAPCELL_ROW_31_176
*1285 TAP_TAPCELL_ROW_31_177
*1286 TAP_TAPCELL_ROW_31_178
*1287 TAP_TAPCELL_ROW_31_179
*1288 TAP_TAPCELL_ROW_31_180
*1289 TAP_TAPCELL_ROW_31_181
*1290 TAP_TAPCELL_ROW_31_182
*1291 TAP_TAPCELL_ROW_3_78
*1292 TAP_TAPCELL_ROW_3_79
*1293 TAP_TAPCELL_ROW_3_80
*1294 TAP_TAPCELL_ROW_4_81
*1295 TAP_TAPCELL_ROW_4_82
*1296 TAP_TAPCELL_ROW_4_83
*1297 TAP_TAPCELL_ROW_4_84
*1298 TAP_TAPCELL_ROW_5_85
*1299 TAP_TAPCELL_ROW_5_86
*1300 TAP_TAPCELL_ROW_5_87
*1301 TAP_TAPCELL_ROW_6_88
*1302 TAP_TAPCELL_ROW_6_89
*1303 TAP_TAPCELL_ROW_6_90
*1304 TAP_TAPCELL_ROW_6_91
*1305 TAP_TAPCELL_ROW_7_92
*1306 TAP_TAPCELL_ROW_7_93
*1307 TAP_TAPCELL_ROW_7_94
*1308 TAP_TAPCELL_ROW_8_95
*1309 TAP_TAPCELL_ROW_8_96
*1310 TAP_TAPCELL_ROW_8_97
*1311 TAP_TAPCELL_ROW_8_98
*1312 TAP_TAPCELL_ROW_9_100
*1313 TAP_TAPCELL_ROW_9_101
*1314 TAP_TAPCELL_ROW_9_99
*1315 _188_
*1316 _189_
*1317 _190_
*1318 _191_
*1319 _192_
*1320 _193_
*1321 _194_
*1322 _195_
*1323 _196_
*1324 _197_
*1325 _198_
*1326 _199_
*1327 _200_
*1328 _201_
*1329 _202_
*1330 _203_
*1331 _204_
*1332 _205_
*1333 _206_
*1334 _207_
*1335 _208_
*1336 _209_
*1337 _210_
*1338 _211_
*1339 _212_
*1340 _213_
*1341 _214_
*1342 _215_
*1343 _216_
*1344 _217_
*1345 _218_
*1346 _219_
*1347 _220_
*1348 _221_
*1349 _222_
*1350 _223_
*1351 _224_
*1352 _225_
*1353 _226_
*1354 _227_
*1355 _228_
*1356 _229_
*1357 _230_
*1358 _231_
*1359 _232_
*1360 _233_
*1361 _234_
*1362 _235_
*1363 _236_
*1364 _237_
*1365 _238_
*1366 _239_
*1367 _240_
*1368 _241_
*1369 _242_
*1370 _243_
*1371 _244_
*1372 _245_
*1373 _246_
*1374 _247_
*1375 _248_
*1376 _249_
*1377 _250_
*1378 _251_
*1379 _252_
*1380 _253_
*1381 _254_
*1382 _255_
*1383 _256_
*1384 _257_
*1385 _258_
*1386 _259_
*1387 _260_
*1388 _261_
*1389 _262_
*1390 _263_
*1391 _264_
*1392 _265_
*1393 _266_
*1394 _267_
*1395 _268_
*1396 _269_
*1397 _270_
*1398 _271_
*1399 _272_
*1400 _273_
*1401 _274_
*1402 _275_
*1403 _276_
*1404 _277_
*1405 _278_
*1406 _279_
*1407 _280_
*1408 _281_
*1409 _282_
*1410 _283_
*1411 _284_
*1412 _285_
*1413 _286_
*1414 _287_
*1415 _288_
*1416 _289_
*1417 _290_
*1418 _291_
*1419 _292_
*1420 _293_
*1421 _294_
*1422 _295_
*1423 _296_
*1424 _297_
*1425 _298_
*1426 _299_
*1427 _300_
*1428 _301_
*1429 _302_
*1430 _303_
*1431 _304_
*1432 _305_
*1433 _306_
*1434 _307_
*1435 _308_
*1436 _309_
*1437 _310_
*1438 _311_
*1439 _312_
*1440 _313_
*1441 _314_
*1442 _315_
*1443 _316_
*1444 _317_
*1445 _318_
*1446 _319_
*1447 _320_
*1448 _321_
*1449 _322_
*1450 _323_
*1451 _324_
*1452 _325_
*1453 _326_
*1454 _327_
*1455 _328_
*1456 _329_
*1457 _330_
*1458 _331_
*1459 _332_
*1460 _333_
*1461 _334_
*1462 _335_
*1463 _336_
*1464 _337_
*1465 _338_
*1466 _339_
*1467 _340_
*1468 _341_
*1469 _342_
*1470 _343_
*1471 _344_
*1472 _345_
*1473 _346_
*1474 _347_
*1475 _348_
*1476 _349_
*1477 _350_
*1478 _351_
*1479 _352_
*1480 _353_
*1481 _354_
*1482 _355_
*1483 _356_
*1484 _357_
*1485 _358_
*1486 _359_
*1487 _360_
*1488 _361_
*1489 _362_
*1490 _363_
*1491 _364_
*1492 _365_
*1493 _366_
*1494 _367_
*1495 _368_
*1496 _369_
*1497 _370_
*1498 _371_
*1499 _372_
*1500 _373_
*1501 _374_
*1502 _375_
*1503 _376_
*1504 _377_
*1505 _378_
*1506 _379_
*1507 _380_
*1508 _381_
*1509 _382_
*1510 _383_
*1511 _384_
*1512 _385_
*1513 _386_
*1514 _387_
*1515 _388_
*1516 _389_
*1517 _390_
*1518 _391_
*1519 _392_
*1520 _393_
*1521 _394_
*1522 _395_
*1523 _396_
*1524 _397_
*1525 _398_
*1526 _399_
*1527 _400_
*1528 _401_
*1529 _402_
*1530 _403_
*1531 _404_
*1532 _405_
*1533 _406_
*1534 _407_
*1535 _408_
*1536 _409_
*1537 _410_
*1538 _411_
*1539 _412_
*1540 _413_
*1541 _414_
*1542 _415_
*1543 _416_
*1544 _417_
*1545 _418_
*1546 _419_
*1547 _420_
*1548 _421_
*1549 _422_
*1550 _423_
*1551 _424_
*1552 _425_
*1553 _426_
*1554 _427_
*1555 _428_
*1556 _429_
*1557 _429__98
*1558 _430_
*1559 _431_
*1560 _432_
*1561 _433_
*1562 _434_
*1563 _435_
*1564 _436_
*1565 _437_
*1566 _438_
*1567 _439_
*1568 _440_
*1569 _441_