*SPEF "ieee 1481-1999"
*DESIGN "team_02"
*DATE "22:54:52 Thursday March 05, 2026"
*VENDOR "The OpenROAD Project"
*PROGRAM "OpenROAD"
*VERSION "edf00dff99f6c40d67a30c0e22a8191c5d2ed9d6"
*DESIGN_FLOW "NAME_SCOPE LOCAL" "PIN_CAP NONE"
*DIVIDER /
*DELIMITER :
*BUS_DELIMITER []
*T_UNIT 1 NS
*C_UNIT 1 PF
*R_UNIT 1 OHM
*L_UNIT 1 HENRY

*NAME_MAP
*1 clk
*2 en
*3 gpio_in[0]
*4 gpio_in[10]
*5 gpio_in[11]
*6 gpio_in[12]
*7 gpio_in[13]
*8 gpio_in[14]
*9 gpio_in[15]
*10 gpio_in[16]
*11 gpio_in[17]
*12 gpio_in[18]
*13 gpio_in[19]
*14 gpio_in[1]
*15 gpio_in[20]
*16 gpio_in[21]
*17 gpio_in[22]
*18 gpio_in[23]
*19 gpio_in[24]
*20 gpio_in[25]
*21 gpio_in[26]
*22 gpio_in[27]
*23 gpio_in[28]
*24 gpio_in[29]
*25 gpio_in[2]
*26 gpio_in[30]
*27 gpio_in[31]
*28 gpio_in[32]
*29 gpio_in[33]
*30 gpio_in[3]
*31 gpio_in[4]
*32 gpio_in[5]
*33 gpio_in[6]
*34 gpio_in[7]
*35 gpio_in[8]
*36 gpio_in[9]
*37 net229
*38 net237
*39 net238
*40 net239
*41 net240
*42 net241
*43 net242
*44 net243
*45 net244
*46 net245
*47 net246
*48 net230
*49 net247
*50 net248
*51 net249
*52 net250
*53 net251
*54 net252
*55 net253
*56 net254
*57 net255
*58 net256
*59 net231
*60 net257
*61 net258
*62 net259
*63 net260
*64 net294
*65 net295
*66 net232
*67 net233
*68 net234
*69 net235
*70 net236
*71 net261
*72 net269
*73 net270
*74 net271
*75 net272
*76 net273
*77 net274
*78 net275
*79 net276
*80 net277
*81 net278
*82 net262
*83 net279
*84 net280
*85 net281
*86 net282
*87 net283
*88 net284
*89 net285
*90 net286
*91 net287
*92 net288
*93 net263
*94 net289
*95 net290
*96 net291
*97 net292
*98 gpio_out[3]
*99 gpio_out[4]
*100 net264
*101 net265
*102 net266
*103 net267
*104 net268
*105 nrst
*108 MATMULT_INST\.matmult_inst\.addr\[0\]
*109 MATMULT_INST\.matmult_inst\.addr\[1\]
*110 MATMULT_INST\.matmult_inst\.alu_inst\.a0_reg\[0\]
*111 MATMULT_INST\.matmult_inst\.alu_inst\.a0_reg\[1\]
*112 MATMULT_INST\.matmult_inst\.alu_inst\.a0_reg\[2\]
*113 MATMULT_INST\.matmult_inst\.alu_inst\.a0_reg\[3\]
*114 MATMULT_INST\.matmult_inst\.alu_inst\.a0_reg\[4\]
*115 MATMULT_INST\.matmult_inst\.alu_inst\.a0_reg\[5\]
*116 MATMULT_INST\.matmult_inst\.alu_inst\.a0_reg\[6\]
*117 MATMULT_INST\.matmult_inst\.alu_inst\.a0_reg\[7\]
*118 MATMULT_INST\.matmult_inst\.alu_inst\.a1_reg\[0\]
*119 MATMULT_INST\.matmult_inst\.alu_inst\.a1_reg\[1\]
*120 MATMULT_INST\.matmult_inst\.alu_inst\.a1_reg\[2\]
*121 MATMULT_INST\.matmult_inst\.alu_inst\.a1_reg\[3\]
*122 MATMULT_INST\.matmult_inst\.alu_inst\.a1_reg\[4\]
*123 MATMULT_INST\.matmult_inst\.alu_inst\.a1_reg\[5\]
*124 MATMULT_INST\.matmult_inst\.alu_inst\.a1_reg\[6\]
*125 MATMULT_INST\.matmult_inst\.alu_inst\.a1_reg\[7\]
*126 MATMULT_INST\.matmult_inst\.alu_inst\.adder_inst\.fa\.a
*127 MATMULT_INST\.matmult_inst\.alu_inst\.adder_inst\.fa\.b
*128 MATMULT_INST\.matmult_inst\.alu_inst\.adder_inst\.r0\.fa0\.a
*129 MATMULT_INST\.matmult_inst\.alu_inst\.adder_inst\.r0\.fa0\.b
*130 MATMULT_INST\.matmult_inst\.alu_inst\.adder_inst\.r0\.fa1\.a
*131 MATMULT_INST\.matmult_inst\.alu_inst\.adder_inst\.r0\.fa1\.b
*132 MATMULT_INST\.matmult_inst\.alu_inst\.adder_inst\.r0\.fa2\.a
*133 MATMULT_INST\.matmult_inst\.alu_inst\.adder_inst\.r0\.fa2\.b
*134 MATMULT_INST\.matmult_inst\.alu_inst\.adder_inst\.r0\.fa3\.a
*135 MATMULT_INST\.matmult_inst\.alu_inst\.adder_inst\.r0\.fa3\.b
*136 MATMULT_INST\.matmult_inst\.alu_inst\.adder_inst\.r1\.fa0\.a
*137 MATMULT_INST\.matmult_inst\.alu_inst\.adder_inst\.r1\.fa0\.b
*138 MATMULT_INST\.matmult_inst\.alu_inst\.adder_inst\.r1\.fa1\.a
*139 MATMULT_INST\.matmult_inst\.alu_inst\.adder_inst\.r1\.fa1\.b
*140 MATMULT_INST\.matmult_inst\.alu_inst\.adder_inst\.r1\.fa2\.a
*141 MATMULT_INST\.matmult_inst\.alu_inst\.adder_inst\.r1\.fa2\.b
*142 MATMULT_INST\.matmult_inst\.alu_inst\.adder_inst\.r1\.fa3\.a
*143 MATMULT_INST\.matmult_inst\.alu_inst\.adder_inst\.r1\.fa3\.b
*144 MATMULT_INST\.matmult_inst\.alu_inst\.adder_inst\.r2\.fa0\.a
*145 MATMULT_INST\.matmult_inst\.alu_inst\.adder_inst\.r2\.fa0\.b
*146 MATMULT_INST\.matmult_inst\.alu_inst\.adder_inst\.r2\.fa1\.a
*147 MATMULT_INST\.matmult_inst\.alu_inst\.adder_inst\.r2\.fa1\.b
*148 MATMULT_INST\.matmult_inst\.alu_inst\.adder_inst\.r2\.fa2\.a
*149 MATMULT_INST\.matmult_inst\.alu_inst\.adder_inst\.r2\.fa2\.b
*150 MATMULT_INST\.matmult_inst\.alu_inst\.adder_inst\.r2\.fa3\.a
*151 MATMULT_INST\.matmult_inst\.alu_inst\.adder_inst\.r2\.fa3\.b
*152 MATMULT_INST\.matmult_inst\.alu_inst\.adder_inst\.r3\.fa0\.a
*153 MATMULT_INST\.matmult_inst\.alu_inst\.adder_inst\.r3\.fa0\.b
*154 MATMULT_INST\.matmult_inst\.alu_inst\.adder_inst\.r3\.fa1\.a
*155 MATMULT_INST\.matmult_inst\.alu_inst\.adder_inst\.r3\.fa1\.b
*156 MATMULT_INST\.matmult_inst\.alu_inst\.adder_inst\.r3\.fa2\.a
*157 MATMULT_INST\.matmult_inst\.alu_inst\.adder_inst\.r3\.fa2\.b
*158 MATMULT_INST\.matmult_inst\.alu_inst\.adder_inst\.r3\.fa3\.a
*159 MATMULT_INST\.matmult_inst\.alu_inst\.adder_inst\.r3\.fa3\.b
*160 MATMULT_INST\.matmult_inst\.alu_inst\.b0_reg\[0\]
*161 MATMULT_INST\.matmult_inst\.alu_inst\.b0_reg\[1\]
*162 MATMULT_INST\.matmult_inst\.alu_inst\.b0_reg\[2\]
*163 MATMULT_INST\.matmult_inst\.alu_inst\.b0_reg\[3\]
*164 MATMULT_INST\.matmult_inst\.alu_inst\.b0_reg\[4\]
*165 MATMULT_INST\.matmult_inst\.alu_inst\.b0_reg\[5\]
*166 MATMULT_INST\.matmult_inst\.alu_inst\.b0_reg\[6\]
*167 MATMULT_INST\.matmult_inst\.alu_inst\.b0_reg\[7\]
*168 MATMULT_INST\.matmult_inst\.alu_inst\.b1_reg\[0\]
*169 MATMULT_INST\.matmult_inst\.alu_inst\.b1_reg\[1\]
*170 MATMULT_INST\.matmult_inst\.alu_inst\.b1_reg\[2\]
*171 MATMULT_INST\.matmult_inst\.alu_inst\.b1_reg\[3\]
*172 MATMULT_INST\.matmult_inst\.alu_inst\.b1_reg\[4\]
*173 MATMULT_INST\.matmult_inst\.alu_inst\.b1_reg\[5\]
*174 MATMULT_INST\.matmult_inst\.alu_inst\.b1_reg\[6\]
*175 MATMULT_INST\.matmult_inst\.alu_inst\.b1_reg\[7\]
*176 MATMULT_INST\.matmult_inst\.alu_inst\.col0\[0\]
*177 MATMULT_INST\.matmult_inst\.alu_inst\.col0\[1\]
*178 MATMULT_INST\.matmult_inst\.alu_inst\.col0\[2\]
*179 MATMULT_INST\.matmult_inst\.alu_inst\.col0\[3\]
*180 MATMULT_INST\.matmult_inst\.alu_inst\.col0\[4\]
*181 MATMULT_INST\.matmult_inst\.alu_inst\.col0\[5\]
*182 MATMULT_INST\.matmult_inst\.alu_inst\.col0\[6\]
*183 MATMULT_INST\.matmult_inst\.alu_inst\.col0\[7\]
*184 MATMULT_INST\.matmult_inst\.alu_inst\.col1\[0\]
*185 MATMULT_INST\.matmult_inst\.alu_inst\.col1\[1\]
*186 MATMULT_INST\.matmult_inst\.alu_inst\.col1\[2\]
*187 MATMULT_INST\.matmult_inst\.alu_inst\.col1\[3\]
*188 MATMULT_INST\.matmult_inst\.alu_inst\.col1\[4\]
*189 MATMULT_INST\.matmult_inst\.alu_inst\.col1\[5\]
*190 MATMULT_INST\.matmult_inst\.alu_inst\.col1\[6\]
*191 MATMULT_INST\.matmult_inst\.alu_inst\.col1\[7\]
*192 MATMULT_INST\.matmult_inst\.alu_inst\.complete
*193 MATMULT_INST\.matmult_inst\.alu_inst\.out\[0\]
*194 MATMULT_INST\.matmult_inst\.alu_inst\.out\[10\]
*195 MATMULT_INST\.matmult_inst\.alu_inst\.out\[11\]
*196 MATMULT_INST\.matmult_inst\.alu_inst\.out\[12\]
*197 MATMULT_INST\.matmult_inst\.alu_inst\.out\[13\]
*198 MATMULT_INST\.matmult_inst\.alu_inst\.out\[14\]
*199 MATMULT_INST\.matmult_inst\.alu_inst\.out\[15\]
*200 MATMULT_INST\.matmult_inst\.alu_inst\.out\[16\]
*201 MATMULT_INST\.matmult_inst\.alu_inst\.out\[17\]
*202 MATMULT_INST\.matmult_inst\.alu_inst\.out\[1\]
*203 MATMULT_INST\.matmult_inst\.alu_inst\.out\[2\]
*204 MATMULT_INST\.matmult_inst\.alu_inst\.out\[3\]
*205 MATMULT_INST\.matmult_inst\.alu_inst\.out\[4\]
*206 MATMULT_INST\.matmult_inst\.alu_inst\.out\[5\]
*207 MATMULT_INST\.matmult_inst\.alu_inst\.out\[6\]
*208 MATMULT_INST\.matmult_inst\.alu_inst\.out\[7\]
*209 MATMULT_INST\.matmult_inst\.alu_inst\.out\[8\]
*210 MATMULT_INST\.matmult_inst\.alu_inst\.out\[9\]
*211 MATMULT_INST\.matmult_inst\.alu_inst\.row0\[0\]
*212 MATMULT_INST\.matmult_inst\.alu_inst\.row0\[1\]
*213 MATMULT_INST\.matmult_inst\.alu_inst\.row0\[2\]
*214 MATMULT_INST\.matmult_inst\.alu_inst\.row0\[3\]
*215 MATMULT_INST\.matmult_inst\.alu_inst\.row0\[4\]
*216 MATMULT_INST\.matmult_inst\.alu_inst\.row0\[5\]
*217 MATMULT_INST\.matmult_inst\.alu_inst\.row0\[6\]
*218 MATMULT_INST\.matmult_inst\.alu_inst\.row0\[7\]
*219 MATMULT_INST\.matmult_inst\.alu_inst\.row1\[0\]
*220 MATMULT_INST\.matmult_inst\.alu_inst\.row1\[1\]
*221 MATMULT_INST\.matmult_inst\.alu_inst\.row1\[2\]
*222 MATMULT_INST\.matmult_inst\.alu_inst\.row1\[3\]
*223 MATMULT_INST\.matmult_inst\.alu_inst\.row1\[4\]
*224 MATMULT_INST\.matmult_inst\.alu_inst\.row1\[5\]
*225 MATMULT_INST\.matmult_inst\.alu_inst\.row1\[6\]
*226 MATMULT_INST\.matmult_inst\.alu_inst\.row1\[7\]
*227 MATMULT_INST\.matmult_inst\.alu_inst\.state\[0\]
*228 MATMULT_INST\.matmult_inst\.alu_inst\.state\[1\]
*229 MATMULT_INST\.matmult_inst\.cs
*230 MATMULT_INST\.matmult_inst\.fsm_inst\.alu_result\[0\]
*231 MATMULT_INST\.matmult_inst\.fsm_inst\.alu_result\[10\]
*232 MATMULT_INST\.matmult_inst\.fsm_inst\.alu_result\[11\]
*233 MATMULT_INST\.matmult_inst\.fsm_inst\.alu_result\[12\]
*234 MATMULT_INST\.matmult_inst\.fsm_inst\.alu_result\[13\]
*235 MATMULT_INST\.matmult_inst\.fsm_inst\.alu_result\[14\]
*236 MATMULT_INST\.matmult_inst\.fsm_inst\.alu_result\[15\]
*237 MATMULT_INST\.matmult_inst\.fsm_inst\.alu_result\[16\]
*238 MATMULT_INST\.matmult_inst\.fsm_inst\.alu_result\[17\]
*239 MATMULT_INST\.matmult_inst\.fsm_inst\.alu_result\[1\]
*240 MATMULT_INST\.matmult_inst\.fsm_inst\.alu_result\[2\]
*241 MATMULT_INST\.matmult_inst\.fsm_inst\.alu_result\[3\]
*242 MATMULT_INST\.matmult_inst\.fsm_inst\.alu_result\[4\]
*243 MATMULT_INST\.matmult_inst\.fsm_inst\.alu_result\[5\]
*244 MATMULT_INST\.matmult_inst\.fsm_inst\.alu_result\[6\]
*245 MATMULT_INST\.matmult_inst\.fsm_inst\.alu_result\[7\]
*246 MATMULT_INST\.matmult_inst\.fsm_inst\.alu_result\[8\]
*247 MATMULT_INST\.matmult_inst\.fsm_inst\.alu_result\[9\]
*248 MATMULT_INST\.matmult_inst\.fsm_inst\.count\[0\]
*249 MATMULT_INST\.matmult_inst\.fsm_inst\.count\[1\]
*250 MATMULT_INST\.matmult_inst\.fsm_inst\.count\[2\]
*251 MATMULT_INST\.matmult_inst\.fsm_inst\.count\[3\]
*252 MATMULT_INST\.matmult_inst\.fsm_inst\.load
*253 MATMULT_INST\.matmult_inst\.fsm_inst\.load_delay
*254 MATMULT_INST\.matmult_inst\.fsm_inst\.rx_data\[0\]
*255 MATMULT_INST\.matmult_inst\.fsm_inst\.rx_data\[1\]
*256 MATMULT_INST\.matmult_inst\.fsm_inst\.rx_data\[2\]
*257 MATMULT_INST\.matmult_inst\.fsm_inst\.rx_data\[3\]
*258 MATMULT_INST\.matmult_inst\.fsm_inst\.rx_data\[4\]
*259 MATMULT_INST\.matmult_inst\.fsm_inst\.rx_data\[5\]
*260 MATMULT_INST\.matmult_inst\.fsm_inst\.rx_data\[6\]
*261 MATMULT_INST\.matmult_inst\.fsm_inst\.rx_data\[7\]
*262 MATMULT_INST\.matmult_inst\.fsm_inst\.rx_ready_edge
*263 MATMULT_INST\.matmult_inst\.fsm_inst\.rx_ready_edge_delay
*264 MATMULT_INST\.matmult_inst\.fsm_inst\.rx_valid
*265 MATMULT_INST\.matmult_inst\.fsm_inst\.rx_valid_delay
*266 MATMULT_INST\.matmult_inst\.fsm_inst\.sel\[0\]
*267 MATMULT_INST\.matmult_inst\.fsm_inst\.sel\[1\]
*268 MATMULT_INST\.matmult_inst\.fsm_inst\.sel\[2\]
*269 MATMULT_INST\.matmult_inst\.fsm_inst\.state\[0\]
*270 MATMULT_INST\.matmult_inst\.fsm_inst\.state\[1\]
*271 MATMULT_INST\.matmult_inst\.fsm_inst\.state\[2\]
*272 MATMULT_INST\.matmult_inst\.fsm_inst\.state\[3\]
*273 MATMULT_INST\.matmult_inst\.fsm_inst\.state\[4\]
*274 MATMULT_INST\.matmult_inst\.fsm_inst\.transaction_ready
*275 MATMULT_INST\.matmult_inst\.fsm_inst\.tx_ready
*276 MATMULT_INST\.matmult_inst\.fsm_inst\.tx_ready_delay
*277 MATMULT_INST\.matmult_inst\.fsm_inst\.tx_start_send
*278 MATMULT_INST\.matmult_inst\.mem_inst\.matrixA0\[0\]
*279 MATMULT_INST\.matmult_inst\.mem_inst\.matrixA0\[10\]
*280 MATMULT_INST\.matmult_inst\.mem_inst\.matrixA0\[11\]
*281 MATMULT_INST\.matmult_inst\.mem_inst\.matrixA0\[12\]
*282 MATMULT_INST\.matmult_inst\.mem_inst\.matrixA0\[13\]
*283 MATMULT_INST\.matmult_inst\.mem_inst\.matrixA0\[14\]
*284 MATMULT_INST\.matmult_inst\.mem_inst\.matrixA0\[15\]
*285 MATMULT_INST\.matmult_inst\.mem_inst\.matrixA0\[16\]
*286 MATMULT_INST\.matmult_inst\.mem_inst\.matrixA0\[17\]
*287 MATMULT_INST\.matmult_inst\.mem_inst\.matrixA0\[1\]
*288 MATMULT_INST\.matmult_inst\.mem_inst\.matrixA0\[2\]
*289 MATMULT_INST\.matmult_inst\.mem_inst\.matrixA0\[3\]
*290 MATMULT_INST\.matmult_inst\.mem_inst\.matrixA0\[4\]
*291 MATMULT_INST\.matmult_inst\.mem_inst\.matrixA0\[5\]
*292 MATMULT_INST\.matmult_inst\.mem_inst\.matrixA0\[6\]
*293 MATMULT_INST\.matmult_inst\.mem_inst\.matrixA0\[7\]
*294 MATMULT_INST\.matmult_inst\.mem_inst\.matrixA0\[8\]
*295 MATMULT_INST\.matmult_inst\.mem_inst\.matrixA0\[9\]
*296 MATMULT_INST\.matmult_inst\.mem_inst\.matrixA1\[0\]
*297 MATMULT_INST\.matmult_inst\.mem_inst\.matrixA1\[10\]
*298 MATMULT_INST\.matmult_inst\.mem_inst\.matrixA1\[11\]
*299 MATMULT_INST\.matmult_inst\.mem_inst\.matrixA1\[12\]
*300 MATMULT_INST\.matmult_inst\.mem_inst\.matrixA1\[13\]
*301 MATMULT_INST\.matmult_inst\.mem_inst\.matrixA1\[14\]
*302 MATMULT_INST\.matmult_inst\.mem_inst\.matrixA1\[15\]
*303 MATMULT_INST\.matmult_inst\.mem_inst\.matrixA1\[16\]
*304 MATMULT_INST\.matmult_inst\.mem_inst\.matrixA1\[17\]
*305 MATMULT_INST\.matmult_inst\.mem_inst\.matrixA1\[1\]
*306 MATMULT_INST\.matmult_inst\.mem_inst\.matrixA1\[2\]
*307 MATMULT_INST\.matmult_inst\.mem_inst\.matrixA1\[3\]
*308 MATMULT_INST\.matmult_inst\.mem_inst\.matrixA1\[4\]
*309 MATMULT_INST\.matmult_inst\.mem_inst\.matrixA1\[5\]
*310 MATMULT_INST\.matmult_inst\.mem_inst\.matrixA1\[6\]
*311 MATMULT_INST\.matmult_inst\.mem_inst\.matrixA1\[7\]
*312 MATMULT_INST\.matmult_inst\.mem_inst\.matrixA1\[8\]
*313 MATMULT_INST\.matmult_inst\.mem_inst\.matrixA1\[9\]
*314 MATMULT_INST\.matmult_inst\.mem_inst\.matrixA2\[0\]
*315 MATMULT_INST\.matmult_inst\.mem_inst\.matrixA2\[10\]
*316 MATMULT_INST\.matmult_inst\.mem_inst\.matrixA2\[11\]
*317 MATMULT_INST\.matmult_inst\.mem_inst\.matrixA2\[12\]
*318 MATMULT_INST\.matmult_inst\.mem_inst\.matrixA2\[13\]
*319 MATMULT_INST\.matmult_inst\.mem_inst\.matrixA2\[14\]
*320 MATMULT_INST\.matmult_inst\.mem_inst\.matrixA2\[15\]
*321 MATMULT_INST\.matmult_inst\.mem_inst\.matrixA2\[16\]
*322 MATMULT_INST\.matmult_inst\.mem_inst\.matrixA2\[17\]
*323 MATMULT_INST\.matmult_inst\.mem_inst\.matrixA2\[1\]
*324 MATMULT_INST\.matmult_inst\.mem_inst\.matrixA2\[2\]
*325 MATMULT_INST\.matmult_inst\.mem_inst\.matrixA2\[3\]
*326 MATMULT_INST\.matmult_inst\.mem_inst\.matrixA2\[4\]
*327 MATMULT_INST\.matmult_inst\.mem_inst\.matrixA2\[5\]
*328 MATMULT_INST\.matmult_inst\.mem_inst\.matrixA2\[6\]
*329 MATMULT_INST\.matmult_inst\.mem_inst\.matrixA2\[7\]
*330 MATMULT_INST\.matmult_inst\.mem_inst\.matrixA2\[8\]
*331 MATMULT_INST\.matmult_inst\.mem_inst\.matrixA2\[9\]
*332 MATMULT_INST\.matmult_inst\.mem_inst\.matrixA3\[0\]
*333 MATMULT_INST\.matmult_inst\.mem_inst\.matrixA3\[10\]
*334 MATMULT_INST\.matmult_inst\.mem_inst\.matrixA3\[11\]
*335 MATMULT_INST\.matmult_inst\.mem_inst\.matrixA3\[12\]
*336 MATMULT_INST\.matmult_inst\.mem_inst\.matrixA3\[13\]
*337 MATMULT_INST\.matmult_inst\.mem_inst\.matrixA3\[14\]
*338 MATMULT_INST\.matmult_inst\.mem_inst\.matrixA3\[15\]
*339 MATMULT_INST\.matmult_inst\.mem_inst\.matrixA3\[16\]
*340 MATMULT_INST\.matmult_inst\.mem_inst\.matrixA3\[17\]
*341 MATMULT_INST\.matmult_inst\.mem_inst\.matrixA3\[1\]
*342 MATMULT_INST\.matmult_inst\.mem_inst\.matrixA3\[2\]
*343 MATMULT_INST\.matmult_inst\.mem_inst\.matrixA3\[3\]
*344 MATMULT_INST\.matmult_inst\.mem_inst\.matrixA3\[4\]
*345 MATMULT_INST\.matmult_inst\.mem_inst\.matrixA3\[5\]
*346 MATMULT_INST\.matmult_inst\.mem_inst\.matrixA3\[6\]
*347 MATMULT_INST\.matmult_inst\.mem_inst\.matrixA3\[7\]
*348 MATMULT_INST\.matmult_inst\.mem_inst\.matrixA3\[8\]
*349 MATMULT_INST\.matmult_inst\.mem_inst\.matrixA3\[9\]
*350 MATMULT_INST\.matmult_inst\.mem_inst\.matrixB0\[0\]
*351 MATMULT_INST\.matmult_inst\.mem_inst\.matrixB0\[10\]
*352 MATMULT_INST\.matmult_inst\.mem_inst\.matrixB0\[11\]
*353 MATMULT_INST\.matmult_inst\.mem_inst\.matrixB0\[12\]
*354 MATMULT_INST\.matmult_inst\.mem_inst\.matrixB0\[13\]
*355 MATMULT_INST\.matmult_inst\.mem_inst\.matrixB0\[14\]
*356 MATMULT_INST\.matmult_inst\.mem_inst\.matrixB0\[15\]
*357 MATMULT_INST\.matmult_inst\.mem_inst\.matrixB0\[16\]
*358 MATMULT_INST\.matmult_inst\.mem_inst\.matrixB0\[17\]
*359 MATMULT_INST\.matmult_inst\.mem_inst\.matrixB0\[1\]
*360 MATMULT_INST\.matmult_inst\.mem_inst\.matrixB0\[2\]
*361 MATMULT_INST\.matmult_inst\.mem_inst\.matrixB0\[3\]
*362 MATMULT_INST\.matmult_inst\.mem_inst\.matrixB0\[4\]
*363 MATMULT_INST\.matmult_inst\.mem_inst\.matrixB0\[5\]
*364 MATMULT_INST\.matmult_inst\.mem_inst\.matrixB0\[6\]
*365 MATMULT_INST\.matmult_inst\.mem_inst\.matrixB0\[7\]
*366 MATMULT_INST\.matmult_inst\.mem_inst\.matrixB0\[8\]
*367 MATMULT_INST\.matmult_inst\.mem_inst\.matrixB0\[9\]
*368 MATMULT_INST\.matmult_inst\.mem_inst\.matrixB1\[0\]
*369 MATMULT_INST\.matmult_inst\.mem_inst\.matrixB1\[10\]
*370 MATMULT_INST\.matmult_inst\.mem_inst\.matrixB1\[11\]
*371 MATMULT_INST\.matmult_inst\.mem_inst\.matrixB1\[12\]
*372 MATMULT_INST\.matmult_inst\.mem_inst\.matrixB1\[13\]
*373 MATMULT_INST\.matmult_inst\.mem_inst\.matrixB1\[14\]
*374 MATMULT_INST\.matmult_inst\.mem_inst\.matrixB1\[15\]
*375 MATMULT_INST\.matmult_inst\.mem_inst\.matrixB1\[16\]
*376 MATMULT_INST\.matmult_inst\.mem_inst\.matrixB1\[17\]
*377 MATMULT_INST\.matmult_inst\.mem_inst\.matrixB1\[1\]
*378 MATMULT_INST\.matmult_inst\.mem_inst\.matrixB1\[2\]
*379 MATMULT_INST\.matmult_inst\.mem_inst\.matrixB1\[3\]
*380 MATMULT_INST\.matmult_inst\.mem_inst\.matrixB1\[4\]
*381 MATMULT_INST\.matmult_inst\.mem_inst\.matrixB1\[5\]
*382 MATMULT_INST\.matmult_inst\.mem_inst\.matrixB1\[6\]
*383 MATMULT_INST\.matmult_inst\.mem_inst\.matrixB1\[7\]
*384 MATMULT_INST\.matmult_inst\.mem_inst\.matrixB1\[8\]
*385 MATMULT_INST\.matmult_inst\.mem_inst\.matrixB1\[9\]
*386 MATMULT_INST\.matmult_inst\.mem_inst\.matrixB2\[0\]
*387 MATMULT_INST\.matmult_inst\.mem_inst\.matrixB2\[10\]
*388 MATMULT_INST\.matmult_inst\.mem_inst\.matrixB2\[11\]
*389 MATMULT_INST\.matmult_inst\.mem_inst\.matrixB2\[12\]
*390 MATMULT_INST\.matmult_inst\.mem_inst\.matrixB2\[13\]
*391 MATMULT_INST\.matmult_inst\.mem_inst\.matrixB2\[14\]
*392 MATMULT_INST\.matmult_inst\.mem_inst\.matrixB2\[15\]
*393 MATMULT_INST\.matmult_inst\.mem_inst\.matrixB2\[16\]
*394 MATMULT_INST\.matmult_inst\.mem_inst\.matrixB2\[17\]
*395 MATMULT_INST\.matmult_inst\.mem_inst\.matrixB2\[1\]
*396 MATMULT_INST\.matmult_inst\.mem_inst\.matrixB2\[2\]
*397 MATMULT_INST\.matmult_inst\.mem_inst\.matrixB2\[3\]
*398 MATMULT_INST\.matmult_inst\.mem_inst\.matrixB2\[4\]
*399 MATMULT_INST\.matmult_inst\.mem_inst\.matrixB2\[5\]
*400 MATMULT_INST\.matmult_inst\.mem_inst\.matrixB2\[6\]
*401 MATMULT_INST\.matmult_inst\.mem_inst\.matrixB2\[7\]
*402 MATMULT_INST\.matmult_inst\.mem_inst\.matrixB2\[8\]
*403 MATMULT_INST\.matmult_inst\.mem_inst\.matrixB2\[9\]
*404 MATMULT_INST\.matmult_inst\.mem_inst\.matrixB3\[0\]
*405 MATMULT_INST\.matmult_inst\.mem_inst\.matrixB3\[10\]
*406 MATMULT_INST\.matmult_inst\.mem_inst\.matrixB3\[11\]
*407 MATMULT_INST\.matmult_inst\.mem_inst\.matrixB3\[12\]
*408 MATMULT_INST\.matmult_inst\.mem_inst\.matrixB3\[13\]
*409 MATMULT_INST\.matmult_inst\.mem_inst\.matrixB3\[14\]
*410 MATMULT_INST\.matmult_inst\.mem_inst\.matrixB3\[15\]
*411 MATMULT_INST\.matmult_inst\.mem_inst\.matrixB3\[16\]
*412 MATMULT_INST\.matmult_inst\.mem_inst\.matrixB3\[17\]
*413 MATMULT_INST\.matmult_inst\.mem_inst\.matrixB3\[1\]
*414 MATMULT_INST\.matmult_inst\.mem_inst\.matrixB3\[2\]
*415 MATMULT_INST\.matmult_inst\.mem_inst\.matrixB3\[3\]
*416 MATMULT_INST\.matmult_inst\.mem_inst\.matrixB3\[4\]
*417 MATMULT_INST\.matmult_inst\.mem_inst\.matrixB3\[5\]
*418 MATMULT_INST\.matmult_inst\.mem_inst\.matrixB3\[6\]
*419 MATMULT_INST\.matmult_inst\.mem_inst\.matrixB3\[7\]
*420 MATMULT_INST\.matmult_inst\.mem_inst\.matrixB3\[8\]
*421 MATMULT_INST\.matmult_inst\.mem_inst\.matrixB3\[9\]
*422 MATMULT_INST\.matmult_inst\.mem_inst\.mem0\[0\]
*423 MATMULT_INST\.matmult_inst\.mem_inst\.mem0\[10\]
*424 MATMULT_INST\.matmult_inst\.mem_inst\.mem0\[11\]
*425 MATMULT_INST\.matmult_inst\.mem_inst\.mem0\[12\]
*426 MATMULT_INST\.matmult_inst\.mem_inst\.mem0\[13\]
*427 MATMULT_INST\.matmult_inst\.mem_inst\.mem0\[14\]
*428 MATMULT_INST\.matmult_inst\.mem_inst\.mem0\[15\]
*429 MATMULT_INST\.matmult_inst\.mem_inst\.mem0\[16\]
*430 MATMULT_INST\.matmult_inst\.mem_inst\.mem0\[17\]
*431 MATMULT_INST\.matmult_inst\.mem_inst\.mem0\[1\]
*432 MATMULT_INST\.matmult_inst\.mem_inst\.mem0\[2\]
*433 MATMULT_INST\.matmult_inst\.mem_inst\.mem0\[3\]
*434 MATMULT_INST\.matmult_inst\.mem_inst\.mem0\[4\]
*435 MATMULT_INST\.matmult_inst\.mem_inst\.mem0\[5\]
*436 MATMULT_INST\.matmult_inst\.mem_inst\.mem0\[6\]
*437 MATMULT_INST\.matmult_inst\.mem_inst\.mem0\[7\]
*438 MATMULT_INST\.matmult_inst\.mem_inst\.mem0\[8\]
*439 MATMULT_INST\.matmult_inst\.mem_inst\.mem0\[9\]
*440 MATMULT_INST\.matmult_inst\.mem_inst\.mem1\[0\]
*441 MATMULT_INST\.matmult_inst\.mem_inst\.mem1\[10\]
*442 MATMULT_INST\.matmult_inst\.mem_inst\.mem1\[11\]
*443 MATMULT_INST\.matmult_inst\.mem_inst\.mem1\[12\]
*444 MATMULT_INST\.matmult_inst\.mem_inst\.mem1\[13\]
*445 MATMULT_INST\.matmult_inst\.mem_inst\.mem1\[14\]
*446 MATMULT_INST\.matmult_inst\.mem_inst\.mem1\[15\]
*447 MATMULT_INST\.matmult_inst\.mem_inst\.mem1\[16\]
*448 MATMULT_INST\.matmult_inst\.mem_inst\.mem1\[17\]
*449 MATMULT_INST\.matmult_inst\.mem_inst\.mem1\[1\]
*450 MATMULT_INST\.matmult_inst\.mem_inst\.mem1\[2\]
*451 MATMULT_INST\.matmult_inst\.mem_inst\.mem1\[3\]
*452 MATMULT_INST\.matmult_inst\.mem_inst\.mem1\[4\]
*453 MATMULT_INST\.matmult_inst\.mem_inst\.mem1\[5\]
*454 MATMULT_INST\.matmult_inst\.mem_inst\.mem1\[6\]
*455 MATMULT_INST\.matmult_inst\.mem_inst\.mem1\[7\]
*456 MATMULT_INST\.matmult_inst\.mem_inst\.mem1\[8\]
*457 MATMULT_INST\.matmult_inst\.mem_inst\.mem1\[9\]
*458 MATMULT_INST\.matmult_inst\.mem_inst\.mem2\[0\]
*459 MATMULT_INST\.matmult_inst\.mem_inst\.mem2\[10\]
*460 MATMULT_INST\.matmult_inst\.mem_inst\.mem2\[11\]
*461 MATMULT_INST\.matmult_inst\.mem_inst\.mem2\[12\]
*462 MATMULT_INST\.matmult_inst\.mem_inst\.mem2\[13\]
*463 MATMULT_INST\.matmult_inst\.mem_inst\.mem2\[14\]
*464 MATMULT_INST\.matmult_inst\.mem_inst\.mem2\[15\]
*465 MATMULT_INST\.matmult_inst\.mem_inst\.mem2\[16\]
*466 MATMULT_INST\.matmult_inst\.mem_inst\.mem2\[17\]
*467 MATMULT_INST\.matmult_inst\.mem_inst\.mem2\[1\]
*468 MATMULT_INST\.matmult_inst\.mem_inst\.mem2\[2\]
*469 MATMULT_INST\.matmult_inst\.mem_inst\.mem2\[3\]
*470 MATMULT_INST\.matmult_inst\.mem_inst\.mem2\[4\]
*471 MATMULT_INST\.matmult_inst\.mem_inst\.mem2\[5\]
*472 MATMULT_INST\.matmult_inst\.mem_inst\.mem2\[6\]
*473 MATMULT_INST\.matmult_inst\.mem_inst\.mem2\[7\]
*474 MATMULT_INST\.matmult_inst\.mem_inst\.mem2\[8\]
*475 MATMULT_INST\.matmult_inst\.mem_inst\.mem2\[9\]
*476 MATMULT_INST\.matmult_inst\.mem_inst\.mem3\[0\]
*477 MATMULT_INST\.matmult_inst\.mem_inst\.mem3\[10\]
*478 MATMULT_INST\.matmult_inst\.mem_inst\.mem3\[11\]
*479 MATMULT_INST\.matmult_inst\.mem_inst\.mem3\[12\]
*480 MATMULT_INST\.matmult_inst\.mem_inst\.mem3\[13\]
*481 MATMULT_INST\.matmult_inst\.mem_inst\.mem3\[14\]
*482 MATMULT_INST\.matmult_inst\.mem_inst\.mem3\[15\]
*483 MATMULT_INST\.matmult_inst\.mem_inst\.mem3\[16\]
*484 MATMULT_INST\.matmult_inst\.mem_inst\.mem3\[17\]
*485 MATMULT_INST\.matmult_inst\.mem_inst\.mem3\[1\]
*486 MATMULT_INST\.matmult_inst\.mem_inst\.mem3\[2\]
*487 MATMULT_INST\.matmult_inst\.mem_inst\.mem3\[3\]
*488 MATMULT_INST\.matmult_inst\.mem_inst\.mem3\[4\]
*489 MATMULT_INST\.matmult_inst\.mem_inst\.mem3\[5\]
*490 MATMULT_INST\.matmult_inst\.mem_inst\.mem3\[6\]
*491 MATMULT_INST\.matmult_inst\.mem_inst\.mem3\[7\]
*492 MATMULT_INST\.matmult_inst\.mem_inst\.mem3\[8\]
*493 MATMULT_INST\.matmult_inst\.mem_inst\.mem3\[9\]
*494 MATMULT_INST\.matmult_inst\.miso
*495 MATMULT_INST\.matmult_inst\.spi_inst\.cs_sync
*496 MATMULT_INST\.matmult_inst\.spi_inst\.cs_sync_prev
*497 MATMULT_INST\.matmult_inst\.spi_inst\.current_state
*498 MATMULT_INST\.matmult_inst\.spi_inst\.first_bit_sent
*499 MATMULT_INST\.matmult_inst\.spi_inst\.miso_bit
*500 MATMULT_INST\.matmult_inst\.spi_inst\.miso_shifter\[0\]
*501 MATMULT_INST\.matmult_inst\.spi_inst\.miso_shifter\[10\]
*502 MATMULT_INST\.matmult_inst\.spi_inst\.miso_shifter\[11\]
*503 MATMULT_INST\.matmult_inst\.spi_inst\.miso_shifter\[12\]
*504 MATMULT_INST\.matmult_inst\.spi_inst\.miso_shifter\[13\]
*505 MATMULT_INST\.matmult_inst\.spi_inst\.miso_shifter\[14\]
*506 MATMULT_INST\.matmult_inst\.spi_inst\.miso_shifter\[15\]
*507 MATMULT_INST\.matmult_inst\.spi_inst\.miso_shifter\[1\]
*508 MATMULT_INST\.matmult_inst\.spi_inst\.miso_shifter\[2\]
*509 MATMULT_INST\.matmult_inst\.spi_inst\.miso_shifter\[3\]
*510 MATMULT_INST\.matmult_inst\.spi_inst\.miso_shifter\[4\]
*511 MATMULT_INST\.matmult_inst\.spi_inst\.miso_shifter\[5\]
*512 MATMULT_INST\.matmult_inst\.spi_inst\.miso_shifter\[6\]
*513 MATMULT_INST\.matmult_inst\.spi_inst\.miso_shifter\[7\]
*514 MATMULT_INST\.matmult_inst\.spi_inst\.miso_shifter\[8\]
*515 MATMULT_INST\.matmult_inst\.spi_inst\.miso_shifter\[9\]
*516 MATMULT_INST\.matmult_inst\.spi_inst\.mosi_data_spi\[0\]
*517 MATMULT_INST\.matmult_inst\.spi_inst\.mosi_data_spi\[1\]
*518 MATMULT_INST\.matmult_inst\.spi_inst\.mosi_data_spi\[2\]
*519 MATMULT_INST\.matmult_inst\.spi_inst\.mosi_data_spi\[3\]
*520 MATMULT_INST\.matmult_inst\.spi_inst\.mosi_data_spi\[4\]
*521 MATMULT_INST\.matmult_inst\.spi_inst\.mosi_data_spi\[5\]
*522 MATMULT_INST\.matmult_inst\.spi_inst\.mosi_data_spi\[6\]
*523 MATMULT_INST\.matmult_inst\.spi_inst\.mosi_data_spi\[7\]
*524 MATMULT_INST\.matmult_inst\.spi_inst\.mosi_data_sync\[0\]
*525 MATMULT_INST\.matmult_inst\.spi_inst\.mosi_data_sync\[1\]
*526 MATMULT_INST\.matmult_inst\.spi_inst\.mosi_data_sync\[2\]
*527 MATMULT_INST\.matmult_inst\.spi_inst\.mosi_data_sync\[3\]
*528 MATMULT_INST\.matmult_inst\.spi_inst\.mosi_data_sync\[4\]
*529 MATMULT_INST\.matmult_inst\.spi_inst\.mosi_data_sync\[5\]
*530 MATMULT_INST\.matmult_inst\.spi_inst\.mosi_data_sync\[6\]
*531 MATMULT_INST\.matmult_inst\.spi_inst\.mosi_data_sync\[7\]
*532 MATMULT_INST\.matmult_inst\.spi_inst\.mosi_shifter\[0\]
*533 MATMULT_INST\.matmult_inst\.spi_inst\.mosi_shifter\[1\]
*534 MATMULT_INST\.matmult_inst\.spi_inst\.mosi_shifter\[2\]
*535 MATMULT_INST\.matmult_inst\.spi_inst\.mosi_shifter\[3\]
*536 MATMULT_INST\.matmult_inst\.spi_inst\.mosi_shifter\[4\]
*537 MATMULT_INST\.matmult_inst\.spi_inst\.mosi_shifter\[5\]
*538 MATMULT_INST\.matmult_inst\.spi_inst\.mosi_shifter\[6\]
*539 MATMULT_INST\.matmult_inst\.spi_inst\.next_state
*540 MATMULT_INST\.matmult_inst\.spi_inst\.rx_bit_count\[0\]
*541 MATMULT_INST\.matmult_inst\.spi_inst\.rx_bit_count\[1\]
*542 MATMULT_INST\.matmult_inst\.spi_inst\.rx_bit_count\[2\]
*543 MATMULT_INST\.matmult_inst\.spi_inst\.rx_bit_count\[3\]
*544 MATMULT_INST\.matmult_inst\.spi_inst\.rx_done1
*545 MATMULT_INST\.matmult_inst\.spi_inst\.rx_done2
*546 MATMULT_INST\.matmult_inst\.spi_inst\.rx_done_spi
*547 MATMULT_INST\.matmult_inst\.spi_inst\.rx_done_sys
*548 MATMULT_INST\.matmult_inst\.spi_inst\.tx_reg_sys\[0\]
*549 MATMULT_INST\.matmult_inst\.spi_inst\.tx_reg_sys\[10\]
*550 MATMULT_INST\.matmult_inst\.spi_inst\.tx_reg_sys\[11\]
*551 MATMULT_INST\.matmult_inst\.spi_inst\.tx_reg_sys\[12\]
*552 MATMULT_INST\.matmult_inst\.spi_inst\.tx_reg_sys\[13\]
*553 MATMULT_INST\.matmult_inst\.spi_inst\.tx_reg_sys\[14\]
*554 MATMULT_INST\.matmult_inst\.spi_inst\.tx_reg_sys\[15\]
*555 MATMULT_INST\.matmult_inst\.spi_inst\.tx_reg_sys\[16\]
*556 MATMULT_INST\.matmult_inst\.spi_inst\.tx_reg_sys\[17\]
*557 MATMULT_INST\.matmult_inst\.spi_inst\.tx_reg_sys\[1\]
*558 MATMULT_INST\.matmult_inst\.spi_inst\.tx_reg_sys\[2\]
*559 MATMULT_INST\.matmult_inst\.spi_inst\.tx_reg_sys\[3\]
*560 MATMULT_INST\.matmult_inst\.spi_inst\.tx_reg_sys\[4\]
*561 MATMULT_INST\.matmult_inst\.spi_inst\.tx_reg_sys\[5\]
*562 MATMULT_INST\.matmult_inst\.spi_inst\.tx_reg_sys\[6\]
*563 MATMULT_INST\.matmult_inst\.spi_inst\.tx_reg_sys\[7\]
*564 MATMULT_INST\.matmult_inst\.spi_inst\.tx_reg_sys\[8\]
*565 MATMULT_INST\.matmult_inst\.spi_inst\.tx_reg_sys\[9\]
*566 _0000_
*567 _0001_
*568 _0002_
*569 _0003_
*570 _0004_
*571 _0005_
*572 _0006_
*573 _0007_
*574 _0008_
*575 _0009_
*576 _0010_
*577 _0011_
*578 _0012_
*579 _0013_
*580 _0014_
*581 _0015_
*582 _0016_
*583 _0017_
*584 _0018_
*585 _0019_
*586 _0020_
*587 _0021_
*588 _0022_
*589 _0023_
*590 _0024_
*591 _0025_
*592 _0026_
*593 _0027_
*594 _0028_
*595 _0029_
*596 _0030_
*597 _0031_
*598 _0032_
*599 _0033_
*600 _0034_
*601 _0035_
*602 _0036_
*603 _0037_
*604 _0038_
*605 _0039_
*606 _0040_
*607 _0041_
*608 _0042_
*609 _0043_
*610 _0044_
*611 _0045_
*612 _0046_
*613 _0047_
*614 _0048_
*615 _0049_
*616 _0050_
*617 _0051_
*618 _0052_
*619 _0053_
*620 _0054_
*621 _0055_
*622 _0056_
*623 _0057_
*624 _0058_
*625 _0059_
*626 _0060_
*627 _0061_
*628 _0062_
*629 _0063_
*630 _0064_
*631 _0065_
*632 _0066_
*633 _0067_
*634 _0068_
*635 _0069_
*636 _0070_
*637 _0071_
*638 _0072_
*639 _0073_
*640 _0074_
*641 _0075_
*642 _0076_
*643 _0077_
*644 _0078_
*645 _0079_
*646 _0080_
*647 _0081_
*648 _0082_
*649 _0083_
*650 _0084_
*651 _0085_
*652 _0086_
*653 _0087_
*654 _0088_
*655 _0089_
*656 _0090_
*657 _0091_
*658 _0092_
*659 _0093_
*660 _0094_
*661 _0095_
*662 _0096_
*663 _0097_
*664 _0098_
*665 _0099_
*666 _0100_
*667 _0101_
*668 _0102_
*669 _0103_
*670 _0104_
*671 _0105_
*672 _0106_
*673 _0107_
*674 _0108_
*675 _0109_
*676 _0110_
*677 _0111_
*678 _0112_
*679 _0113_
*680 _0114_
*681 _0115_
*682 _0116_
*683 _0117_
*684 _0118_
*685 _0119_
*686 _0120_
*687 _0121_
*688 _0122_
*689 _0123_
*690 _0124_
*691 _0125_
*692 _0126_
*693 _0127_
*694 _0128_
*695 _0129_
*696 _0130_
*697 _0131_
*698 _0132_
*699 _0133_
*700 _0134_
*701 _0135_
*702 _0136_
*703 _0137_
*704 _0138_
*705 _0139_
*706 _0140_
*707 _0141_
*708 _0142_
*709 _0143_
*710 _0144_
*711 _0145_
*712 _0146_
*713 _0147_
*714 _0148_
*715 _0149_
*716 _0150_
*717 _0151_
*718 _0152_
*719 _0153_
*720 _0154_
*721 _0155_
*722 _0156_
*723 _0157_
*724 _0158_
*725 _0159_
*726 _0160_
*727 _0161_
*728 _0162_
*729 _0163_
*730 _0164_
*731 _0165_
*732 _0166_
*733 _0167_
*734 _0168_
*735 _0169_
*736 _0170_
*737 _0171_
*738 _0172_
*739 _0173_
*740 _0174_
*741 _0175_
*742 _0176_
*743 _0177_
*744 _0178_
*745 _0179_
*746 _0180_
*747 _0181_
*748 _0182_
*749 _0183_
*750 _0184_
*751 _0185_
*752 _0186_
*753 _0187_
*754 _0188_
*755 _0189_