*SPEF "ieee 1481-1999"
*DESIGN "team_00"
*DATE "20:14:45 Saturday March 07, 2026"
*VENDOR "The OpenROAD Project"
*PROGRAM "OpenROAD"
*VERSION "edf00dff99f6c40d67a30c0e22a8191c5d2ed9d6"
*DESIGN_FLOW "NAME_SCOPE LOCAL" "PIN_CAP NONE"
*DIVIDER /
*DELIMITER :
*BUS_DELIMITER []
*T_UNIT 1 NS
*C_UNIT 1 PF
*R_UNIT 1 OHM
*L_UNIT 1 HENRY

*NAME_MAP
*1 clk
*2 done
*3 en
*4 gpio_in[0]
*5 gpio_in[10]
*6 gpio_in[11]
*7 gpio_in[12]
*8 gpio_in[13]
*9 gpio_in[14]
*10 gpio_in[15]
*11 gpio_in[16]
*12 gpio_in[17]
*13 gpio_in[18]
*14 gpio_in[19]
*15 gpio_in[1]
*16 gpio_in[20]
*17 gpio_in[21]
*18 gpio_in[22]
*19 gpio_in[23]
*20 gpio_in[24]
*21 gpio_in[25]
*22 gpio_in[26]
*23 gpio_in[27]
*24 gpio_in[28]
*25 gpio_in[29]
*26 gpio_in[2]
*27 gpio_in[30]
*28 gpio_in[31]
*29 gpio_in[32]
*30 gpio_in[33]
*31 gpio_in[3]
*32 gpio_in[4]
*33 gpio_in[5]
*34 gpio_in[6]
*35 gpio_in[7]
*36 gpio_in[8]
*37 gpio_in[9]
*38 gpio_oeb[0]
*39 gpio_oeb[10]
*40 gpio_oeb[11]
*41 gpio_oeb[12]
*42 gpio_oeb[13]
*43 gpio_oeb[14]
*44 gpio_oeb[15]
*45 gpio_oeb[16]
*46 gpio_oeb[17]
*47 gpio_oeb[18]
*48 gpio_oeb[19]
*49 gpio_oeb[1]
*50 gpio_oeb[20]
*51 gpio_oeb[21]
*52 gpio_oeb[22]
*53 gpio_oeb[23]
*54 gpio_oeb[24]
*55 gpio_oeb[25]
*56 gpio_oeb[26]
*57 gpio_oeb[27]
*58 gpio_oeb[28]
*59 gpio_oeb[29]
*60 gpio_oeb[2]
*61 gpio_oeb[30]
*62 gpio_oeb[31]
*63 gpio_oeb[32]
*64 gpio_oeb[33]
*65 gpio_oeb[3]
*66 gpio_oeb[4]
*67 gpio_oeb[5]
*68 gpio_oeb[6]
*69 gpio_oeb[7]
*70 gpio_oeb[8]
*71 gpio_oeb[9]
*72 gpio_out[0]
*73 gpio_out[10]
*74 gpio_out[11]
*75 gpio_out[12]
*76 gpio_out[13]
*77 gpio_out[14]
*78 gpio_out[15]
*79 gpio_out[16]
*80 gpio_out[17]
*81 gpio_out[18]
*82 gpio_out[19]
*83 gpio_out[1]
*84 gpio_out[20]
*85 gpio_out[21]
*86 gpio_out[22]
*87 gpio_out[23]
*88 gpio_out[24]
*89 gpio_out[25]
*90 gpio_out[26]
*91 gpio_out[27]
*92 gpio_out[28]
*93 gpio_out[29]
*94 gpio_out[2]
*95 gpio_out[30]
*96 gpio_out[31]
*97 gpio_out[32]
*98 gpio_out[33]
*99 gpio_out[3]
*100 gpio_out[4]
*101 gpio_out[5]
*102 gpio_out[6]
*103 gpio_out[7]
*104 gpio_out[8]
*105 gpio_out[9]
*106 la_data_in[0]
*107 la_data_in[10]
*108 la_data_in[11]
*109 la_data_in[12]
*110 la_data_in[13]
*111 la_data_in[14]
*112 la_data_in[15]
*113 la_data_in[16]
*114 la_data_in[17]
*115 la_data_in[18]
*116 la_data_in[19]
*117 la_data_in[1]
*118 la_data_in[20]
*119 la_data_in[21]
*120 la_data_in[22]
*121 la_data_in[23]
*122 la_data_in[24]
*123 la_data_in[25]
*124 la_data_in[26]
*125 la_data_in[27]
*126 la_data_in[28]
*127 la_data_in[29]
*128 la_data_in[2]
*129 la_data_in[30]
*130 la_data_in[31]
*131 la_data_in[3]
*132 la_data_in[4]
*133 la_data_in[5]
*134 la_data_in[6]
*135 la_data_in[7]
*136 la_data_in[8]
*137 la_data_in[9]
*138 net126
*139 net136
*140 net137
*141 net138
*142 net139
*143 net140
*144 net141
*145 net142
*146 net143
*147 net144
*148 net145
*149 net127
*150 net146
*151 net147
*152 net148
*153 net149
*154 net150
*155 net151
*156 net152
*157 net153
*158 net154
*159 net155
*160 net128
*161 net156
*162 net157
*163 net129
*164 net130
*165 net131
*166 net132
*167 net133
*168 net134
*169 net135
*170 la_oenb[0]
*171 la_oenb[10]
*172 la_oenb[11]
*173 la_oenb[12]
*174 la_oenb[13]
*175 la_oenb[14]
*176 la_oenb[15]
*177 la_oenb[16]
*178 la_oenb[17]
*179 la_oenb[18]
*180 la_oenb[19]
*181 la_oenb[1]
*182 la_oenb[20]
*183 la_oenb[21]
*184 la_oenb[22]
*185 la_oenb[23]
*186 la_oenb[24]
*187 la_oenb[25]
*188 la_oenb[26]
*189 la_oenb[27]
*190 la_oenb[28]
*191 la_oenb[29]
*192 la_oenb[2]
*193 la_oenb[30]
*194 la_oenb[31]
*195 la_oenb[3]
*196 la_oenb[4]
*197 la_oenb[5]
*198 la_oenb[6]
*199 la_oenb[7]
*200 la_oenb[8]
*201 la_oenb[9]
*202 nrst
*203 prescaler[0]
*204 prescaler[10]
*205 prescaler[11]
*206 prescaler[12]
*207 prescaler[13]
*208 prescaler[1]
*209 prescaler[2]
*210 prescaler[3]
*211 prescaler[4]
*212 prescaler[5]
*213 prescaler[6]
*214 prescaler[7]
*215 prescaler[8]
*216 prescaler[9]
*219 _0000_
*220 _0001_
*221 _0002_
*222 _0003_
*223 _0004_
*224 _0005_
*225 _0006_
*226 _0007_
*227 _0008_
*228 _0009_
*229 _0010_
*230 _0011_
*231 _0012_
*232 _0013_
*233 _0014_
*234 _0015_
*235 _0016_
*236 _0017_
*237 _0018_
*238 _0019_
*239 _0020_
*240 _0021_
*241 _0022_
*242 _0023_
*243 _0024_
*244 _0025_
*245 _0026_
*246 _0027_
*247 _0028_
*248 _0029_
*249 _0030_
*250 _0031_
*251 _0032_
*252 _0033_
*253 _0034_
*254 _0035_
*255 _0036_
*256 _0037_
*257 _0038_
*258 _0039_
*259 _0040_
*260 _0041_
*261 _0042_
*262 _0043_
*263 _0044_
*264 _0045_
*265 _0046_
*266 _0047_
*267 _0048_
*268 _0049_
*269 _0050_
*270 _0051_
*271 _0052_
*272 _0053_
*273 _0054_
*274 _0055_
*275 _0056_
*276 _0057_
*277 _0058_
*278 _0059_
*279 _0060_
*280 _0061_
*281 _0062_
*282 _0063_
*283 _0064_
*284 _0065_
*285 _0066_
*286 _0067_
*287 _0068_
*288 _0069_
*289 _0070_
*290 _0071_
*291 _0072_
*292 _0073_
*293 _0074_
*294 _0075_
*295 _0076_
*296 _0077_
*297 _0078_
*298 _0079_
*299 _0080_
*300 _0081_
*301 _0082_
*302 _0083_
*303 _0084_
*304 _0085_
*305 _0086_
*306 _0087_
*307 _0088_
*308 _0089_
*309 _0090_
*310 _0091_
*311 _0092_
*312 _0093_
*313 _0094_
*314 _0095_
*315 _0096_
*316 _0097_
*317 _0098_
*318 _0099_
*319 _0100_
*320 _0101_
*321 _0102_
*322 _0103_
*323 _0104_
*324 _0105_
*325 _0106_
*326 _0107_
*327 _0108_
*328 _0109_
*329 _0110_
*330 _0111_
*331 _0112_
*332 _0113_
*333 _0114_
*334 _0115_
*335 _0116_
*336 _0117_
*337 _0118_
*338 _0119_
*339 _0120_
*340 _0121_
*341 _0122_
*342 _0123_
*343 _0124_
*344 _0125_
*345 _0126_
*346 _0127_
*347 _0128_
*348 _0129_
*349 _0130_
*350 _0131_
*351 _0132_
*352 _0133_
*353 _0134_
*354 _0135_
*355 _0136_
*356 _0137_
*357 _0138_
*358 _0139_
*359 _0140_
*360 _0141_
*361 _0142_
*362 _0143_
*363 _0144_
*364 _0145_
*365 _0146_
*366 _0147_
*367 _0148_
*368 _0149_
*369 _0150_
*370 _0151_
*371 _0152_
*372 _0153_
*373 _0154_
*374 _0155_
*375 _0156_
*376 _0157_
*377 _0158_
*378 _0159_
*379 _0160_
*380 _0161_
*381 _0162_
*382 _0163_
*383 _0164_
*384 _0165_
*385 _0166_
*386 _0167_
*387 _0168_
*388 _0169_
*389 _0170_
*390 _0171_
*391 _0172_
*392 _0173_
*393 _0174_
*394 _0175_
*395 _0176_
*396 _0177_
*397 _0178_
*398 _0179_
*399 _0180_
*400 _0181_
*401 _0182_
*402 _0183_
*403 _0184_
*404 _0185_
*405 _0186_
*406 _0187_
*407 _0188_
*408 _0189_
*409 _0190_
*410 _0191_
*411 _0192_
*412 _0193_
*413 _0194_
*414 _0195_
*415 _0196_
*416 _0197_
*417 _0198_
*418 _0199_
*419 _0200_
*420 _0201_
*421 _0202_
*422 _0203_
*423 _0204_
*424 _0205_
*425 _0206_
*426 _0207_
*427 _0208_
*428 _0209_
*429 _0210_
*430 _0211_
*431 _0212_
*432 _0213_
*433 _0214_
*434 _0215_
*435 _0216_
*436 _0217_
*437 _0218_
*438 _0219_
*439 _0220_
*440 _0221_
*441 _0222_
*442 _0223_
*443 _0224_
*444 _0225_
*445 _0226_
*446 _0227_
*447 _0228_
*448 _0229_
*449 _0230_
*450 _0231_
*451 _0232_
*452 _0233_
*453 _0234_
*454 _0235_
*455 _0236_
*456 _0237_
*457 _0238_
*458 _0239_
*459 _0240_
*460 _0241_
*461 _0242_
*462 _0243_
*463 _0244_
*464 _0245_
*465 _0246_
*466 _0247_
*467 _0248_
*468 _0249_
*469 _0250_
*470 _0251_
*471 _0252_
*472 _0253_
*473 _0254_
*474 _0255_
*475 _0256_
*476 _0257_
*477 _0258_
*478 _0259_
*479 _0260_
*480 _0261_
*481 _0262_
*482 _0263_
*483 _0264_
*484 _0265_
*485 _0266_
*486 _0267_
*487 _0268_
*488 _0269_
*489 _0270_
*490 _0271_
*491 _0272_
*492 _0273_
*493 _0274_
*494 _0275_
*495 _0276_
*496 _0277_
*497 _0278_
*498 _0279_
*499 _0280_
*500 _0281_
*501 _0282_
*502 _0283_
*503 _0284_
*504 _0285_
*505 _0286_
*506 _0287_
*507 _0288_
*508 _0289_
*509 _0290_
*510 _0291_
*511 _0292_
*512 _0293_
*513 _0294_
*514 _0295_
*515 _0296_
*516 _0297_
*517 _0298_
*518 _0299_
*519 _0300_
*520 _0301_
*521 _0302_
*522 _0303_
*523 _0304_
*524 _0305_
*525 _0306_
*526 _0307_
*527 _0308_
*528 _0309_
*529 _0310_
*530 _0311_
*531 _0312_
*532 _0313_
*533 _0314_
*534 _0315_
*535 _0316_
*536 _0317_
*537 _0318_
*538 _0319_
*539 _0320_
*540 _0321_
*541 _0322_
*542 _0323_
*543 _0324_
*544 _0325_
*545 _0326_
*546 _0327_
*547 _0328_
*548 _0329_
*549 _0330_
*550 _0331_
*551 _0332_
*552 _0333_
*553 _0334_
*554 _0335_
*555 _0336_
*556 _0337_
*557 _0338_
*558 _0339_
*559 _0340_
*560 _0341_
*561 _0342_
*562 _0343_
*563 _0344_
*564 _0345_
*565 _0346_
*566 _0347_
*567 _0348_
*568 _0349_
*569 _0350_
*570 _0351_
*571 _0352_
*572 _0353_
*573 _0354_
*574 _0355_
*575 _0356_
*576 _0357_
*577 _0358_
*578 _0359_
*579 _0360_
*580 _0361_
*581 _0362_
*582 _0363_
*583 _0364_
*584 _0365_
*585 _0366_
*586 _0367_
*587 _0368_
*588 _0369_
*589 _0370_
*590 _0371_
*591 _0372_
*592 _0373_
*593 _0374_
*594 _0375_
*595 _0376_
*596 _0377_
*597 _0378_
*598 _0379_
*599 _0380_
*600 _0381_
*601 _0382_
*602 _0383_
*603 _0384_
*604 _0385_
*605 _0386_
*606 _0387_
*607 _0388_
*608 _0389_
*609 _0390_
*610 _0391_
*611 _0392_
*612 _0393_
*613 _0394_
*614 _0395_
*615 _0396_
*616 _0397_
*617 _0398_
*618 _0399_
*619 _0400_
*620 _0401_
*621 _0402_
*622 _0403_
*623 _0404_
*624 _0405_
*625 _0406_
*626 _0407_
*627 _0408_
*628 _0409_
*629 _0410_
*630 _0411_
*631 _0412_
*632 _0413_
*633 _0414_
*634 _0415_
*635 _0416_
*636 _0417_
*637 _0418_
*638 _0419_
*639 _0420_
*640 _0421_
*641 _0422_
*642 _0423_
*643 _0424_
*644 _0425_
*645 _0426_
*646 _0427_
*647 _0428_
*648 _0429_
*649 _0430_
*650 _0431_
*651 _0432_
*652 _0433_
*653 _0434_
*654 _0435_
*655 _0436_
*656 _0437_
*657 _0438_
*658 _0439_
*659 _0440_
*660 _0441_
*661 _0442_
*662 _0443_
*663 _0444_
*664 _0445_
*665 _0446_
*666 _0447_
*667 _0448_
*668 _0449_
*669 _0450_
*670 _0451_
*671 _0452_
*672 _0453_
*673 _0454_
*674 _0455_
*675 _0456_
*676 _0457_
*677 _0458_
*678 _0459_
*679 _0460_
*680 _0461_
*681 _0462_
*682 _0463_
*683 _0464_
*684 _0465_
*685 _0466_
*686 _0467_
*687 _0468_
*688 _0469_
*689 _0470_
*690 _0471_
*691 _0472_
*692 _0473_
*693 _0474_
*694 _0475_
*695 _0476_
*696 _0477_
*697 _0478_
*698 _0479_
*699 _0480_
*700 _0481_
*701 _0482_
*702 _0483_
*703 _0484_
*704 _0485_
*705 _0486_
*706 _0487_
*707 _0488_
*708 _0489_
*709 _0490_
*710 _0491_
*711 _0492_
*712 _0493_
*713 _0494_
*714 _0495_
*715 _0496_
*716 _0497_
*717 _0498_
*718 _0499_
*719 _0500_
*720 _0501_
*721 _0502_
*722 _0503_
*723 _0504_
*724 _0505_
*725 _0506_
*726 _0507_
*727 _0508_
*728 _0509_
*729 _0510_
*730 _0511_
*731 _0512_
*732 _0513_
*733 _0514_
*734 _0515_
*735 _0516_
*736 _0517_
*737 _0518_
*738 _0519_
*739 _0520_
*740 _0521_
*741 _0522_
*742 _0523_
*743 _0524_
*744 _0525_
*745 _0526_
*746 _0527_
*747 _0528_
*748 _0529_
*749 _0530_
*750 _0531_
*751 _0532_
*752 _0533_
*753 _0534_
*754 _0535_
*755 _0536_
*756 _0537_
*757 _0538_
*758 _0539_
*759 _0540_
*760 _0541_
*761 _0542_
*762 _0543_
*763 _0544_
*764 _0545_
*765 _0546_
*766 _0547_
*767 _0548_
*768 _0549_
*769 _0550_
*770 _0551_
*771 _0552_
*772 _0553_
*773 _0554_
*774 _0555_
*775 _0556_
*776 _0557_
*777 _0558_
*778 _0559_
*779 _0560_
*780 _0561_
*781 _0562_
*782 _0563_
*783 _0564_
*784 _0565_
*785 _0566_
*786 _0567_
*787 _0568_
*788 _0569_
*789 _0570_
*790 _0571_
*791 _0572_
*792 _0573_
*793 _0574_
*794 _0575_
*795 _0576_
*796 _0577_
*797 _0578_
*798 _0579_
*799 _0580_
*800 _0581_
*801 _0582_
*802 _0583_
*803 _0584_
*804 _0585_
*805 _0586_
*806 _0587_
*807 _0588_
*808 _0589_
*809 _0590_
*810 _0591_
*811 _0592_
*812 _0593_
*813 _0594_
*814 _0595_
*815 _0596_
*816 _0597_
*817 _0598_
*818 _0599_
*819 _0600_
*820 _0601_
*821 _0602_
*822 _0603_
*823 _0604_
*824 clk_divider\.count_out\[0\]
*825 clk_divider\.count_out\[10\]
*826 clk_divider\.count_out\[11\]
*827 clk_divider\.count_out\[12\]
*828 clk_divider\.count_out\[13\]
*829 clk_divider\.count_out\[14\]
*830 clk_divider\.count_out\[15\]
*831 clk_divider\.count_out\[16\]
*832 clk_divider\.count_out\[17\]
*833 clk_divider\.count_out\[18\]
*834 clk_divider\.count_out\[19\]
*835 clk_divider\.count_out\[1\]
*836 clk_divider\.count_out\[20\]
*837 clk_divider\.count_out\[21\]
*838 clk_divider\.count_out\[22\]
*839 clk_divider\.count_out\[23\]
*840 clk_divider\.count_out\[24\]
*841 clk_divider\.count_out\[25\]
*842 clk_divider\.count_out\[26\]
*843 clk_divider\.count_out\[27\]
*844 clk_divider\.count_out\[2\]
*845 clk_divider\.count_out\[3\]
*846 clk_divider\.count_out\[4\]
*847 clk_divider\.count_out\[5\]
*848 clk_divider\.count_out\[6\]
*849 clk_divider\.count_out\[7\]
*850 clk_divider\.count_out\[8\]
*851 clk_divider\.count_out\[9\]
*852 clk_divider\.next_count\[0\]
*853 clk_divider\.next_count\[10\]
*854 clk_divider\.next_count\[11\]
*855 clk_divider\.next_count\[12\]
*856 clk_divider\.next_count\[13\]
*857 clk_divider\.next_count\[14\]
*858 clk_divider\.next_count\[15\]
*859 clk_divider\.next_count\[16\]
*860 clk_divider\.next_count\[17\]
*861 clk_divider\.next_count\[18\]
*862 clk_divider\.next_count\[19\]
*863 clk_divider\.next_count\[1\]
*864 clk_divider\.next_count\[20\]
*865 clk_divider\.next_count\[21\]
*866 clk_divider\.next_count\[22\]
*867 clk_divider\.next_count\[23\]
*868 clk_divider\.next_count\[24\]
*869 clk_divider\.next_count\[25\]
*870 clk_divider\.next_count\[26\]
*871 clk_divider\.next_count\[27\]
*872 clk_divider\.next_count\[2\]
*873 clk_divider\.next_count\[3\]
*874 clk_divider\.next_count\[4\]
*875 clk_divider\.next_count\[5\]
*876 clk_divider\.next_count\[6\]
*877 clk_divider\.next_count\[7\]
*878 clk_divider\.next_count\[8\]
*879 clk_divider\.next_count\[9\]
*880 clk_divider\.next_flag
*881 clk_divider\.rollover_flag
*882 clknet_0_clk
*883 clknet_2_0__leaf_clk
*884 clknet_2_1__leaf_clk
*885 clknet_2_2__leaf_clk
*886 clknet_2_3__leaf_clk
*887 count\[0\]
*888 count\[1\]
*889 count\[2\]
*890 count\[3\]
*891 count\[4\]
*892 count\[5\]
*893 counter_to_35\.next_count\[0\]
*894 counter_to_35\.next_count\[1\]
*895 counter_to_35\.next_count\[2\]
*896 counter_to_35\.next_count\[3\]
*897 counter_to_35\.next_count\[4\]
*898 counter_to_35\.next_count\[5\]
*899 counter_to_35\.next_flag
*900 net1
*901 net10
*902 net100
*903 net101
*904 net102
*905 net103
*906 net104
*907 net105
*908 net106
*909 net107
*910 net108
*911 net109
*912 net11
*913 net110
*914 net111
*915 net112
*916 net113
*917 net114
*918 net115
*919 net116
*920 net117
*921 net118
*922 net119
*923 net12
*924 net120
*925 net121
*926 net122
*927 net123
*928 net124
*929 net125
*930 net13
*931 net14
*932 net15
*933 net16
*934 net17
*935 net18
*936 net19
*937 net2
*938 net20
*939 net21
*940 net22
*941 net23
*942 net24
*943 net25
*944 net26
*945 net27
*946 net28
*947 net29
*948 net3
*949 net30
*950 net31
*951 net32
*952 net33
*953 net34
*954 net35
*955 net36
*956 net37
*957 net38
*958 net39
*959 net4
*960 net40
*961 net41
*962 net42
*963 net43
*964 net44
*965 net45
*966 net46
*967 net47
*968 net48
*969 net49
*970 net5
*971 net50
*972 net51
*973 net52
*974 net53
*975 net54
*976 net55
*977 net56
*978 net57
*979 net58
*980 net59
*981 net6
*982 net60
*983 net61
*984 net62
*985 net63
*986 net64
*987 net65
*988 net66
*989 net67
*990 net68
*991 net69
*992 net7
*993 net70
*994 net71
*995 net72
*996 net73
*997 net74
*998 net75
*999 net76
*1000 net77
*1001 net78
*1002 net79
*1003 net8
*1004 net80
*1005 net81
*1006 net82
*1007 net83
*1008 net84
*1009 net85
*1010 net86
*1011 net87
*1012 net88
*1013 net89
*1014 net9
*1015 net90
*1016 net91
*1017 net92
*1018 net93
*1019 net94
*1020 net95
*1021 net96
*1022 net97
*1023 net98
*1024 net99
*1025 ANTENNA__0606__A
*1026 ANTENNA__0606__Y
*1027 ANTENNA__0610__A
*1028 ANTENNA__0612__A
*1029 ANTENNA__0615__A
*1030 ANTENNA__0616__A
*1031 ANTENNA__0618__A
*1032 ANTENNA__0632__A
*1033 ANTENNA__0632__B
*1034 ANTENNA__0632__C_N
*1035 ANTENNA__0646__B
*1036 ANTENNA__0648__A
*1037 ANTENNA__0651__B
*1038 ANTENNA__0653__A2
*1039 ANTENNA__0655__A
*1040 ANTENNA__0655__B
*1041 ANTENNA__0664__A1
*1042 ANTENNA__0664__A2
*1043 ANTENNA__0665__B
*1044 ANTENNA__0669__A
*1045 ANTENNA__0670__A1
*1046 ANTENNA__0676__A
*1047 ANTENNA__0680__A
*1048 ANTENNA__0681__A
*1049 ANTENNA__0686__B
*1050 ANTENNA__0687__A
*1051 ANTENNA__0688__A
*1052 ANTENNA__0689__A
*1053 ANTENNA__0689__B
*1054 ANTENNA__0691__A
*1055 ANTENNA__0691__B
*1056 ANTENNA__0698__B
*1057 ANTENNA__0700__B
*1058 ANTENNA__0701__A
*1059 ANTENNA__0702__A
*1060 ANTENNA__0708__A2
*1061 ANTENNA__0709__A2
*1062 ANTENNA__0710__B
*1063 ANTENNA__0713__A
*1064 ANTENNA__0714__A
*1065 ANTENNA__0723__A
*1066 ANTENNA__0727__A
*1067 ANTENNA__0733__A2
*1068 ANTENNA__0742__A
*1069 ANTENNA__0743__B
*1070 ANTENNA__0745__A
*1071 ANTENNA__0747__A
*1072 ANTENNA__0747__B
*1073 ANTENNA__0749__A1
*1074 ANTENNA__0749__A2
*1075 ANTENNA__0753__A1
*1076 ANTENNA__0758__A
*1077 ANTENNA__0764__A
*1078 ANTENNA__0765__A
*1079 ANTENNA__0781__A
*1080 ANTENNA__0812__A1
*1081 ANTENNA__0822__A
*1082 ANTENNA__0827__A1
*1083 ANTENNA__0830__A
*1084 ANTENNA__0840__B1_N
*1085 ANTENNA__0855__A
*1086 ANTENNA__0856__B1
*1087 ANTENNA__0857__C_N
*1088 ANTENNA__0858__C
*1089 ANTENNA__0862__A1
*1090 ANTENNA__0949__X
*1091 ANTENNA__0950__Y
*1092 ANTENNA__0951__B
*1093 ANTENNA__0952__B
*1094 ANTENNA__0962__X
*1095 ANTENNA__0963__B
*1096 ANTENNA__0964__B
*1097 ANTENNA__0968__A2
*1098 ANTENNA__0978__A
*1099 ANTENNA__0981__A1
*1100 ANTENNA__0984__B2
*1101 ANTENNA__0985__B2
*1102 ANTENNA__0998__A2
*1103 ANTENNA__0998__B1_N
*1104 ANTENNA__0999__A2_N
*1105 ANTENNA__1005__X
*1106 ANTENNA__1006__B
*1107 ANTENNA__1014__A_N
*1108 ANTENNA__1014__B
*1109 ANTENNA__1014__C
*1110 ANTENNA__1015__A
*1111 ANTENNA__1015__B
*1112 ANTENNA__1015__C_N
*1113 ANTENNA__1018__A
*1114 ANTENNA__1020__C
*1115 ANTENNA__1021__A
*1116 ANTENNA__1021__C_N
*1117 ANTENNA__1052__A2
*1118 ANTENNA__1058__A2
*1119 ANTENNA__1065__A2
*1120 ANTENNA__1068__A2
*1121 ANTENNA__1074__A2
*1122 ANTENNA__1080__A2
*1123 ANTENNA__1083__A2
*1124 ANTENNA__1091__A2
*1125 ANTENNA__1097__A2
*1126 ANTENNA__1101__A2
*1127 ANTENNA__1103__A2
*1128 ANTENNA__1107__A2
*1129 ANTENNA__1113__A2
*1130 ANTENNA__1117__B1
*1131 ANTENNA__1129__A
*1132 ANTENNA__1133__A2
*1133 ANTENNA__1140__A2
*1134 ANTENNA__1146__C1
*1135 ANTENNA__1148__A2
*1136 ANTENNA__1149__B1
*1137 ANTENNA__1151__A2
*1138 ANTENNA__1155__A2
*1139 ANTENNA__1156__B1
*1140 ANTENNA__1161__A2
*1141 ANTENNA__1162__B1
*1142 ANTENNA__1168__C1
*1143 ANTENNA__1174__A
*1144 ANTENNA__1177__B1
*1145 ANTENNA__1179__B1
*1146 ANTENNA__1180__A
*1147 ANTENNA__1186__A1
*1148 ANTENNA__1190__D1
*1149 ANTENNA__1193__B2
*1150 ANTENNA__1195__A1_N
*1151 ANTENNA__1200__B2
*1152 ANTENNA__1201__A1
*1153 ANTENNA__1205__A1
*1154 ANTENNA__1214__A1
*1155 ANTENNA__1216__B1
*1156 ANTENNA__1227__B
*1157 ANTENNA__1236__A
*1158 ANTENNA__1279__B
*1159 ANTENNA__1282__RESET_B
*1160 ANTENNA__1283__RESET_B
*1161 ANTENNA__1284__RESET_B
*1162 ANTENNA__1285__RESET_B
*1163 ANTENNA__1295__RESET_B
*1164 ANTENNA__1297__RESET_B
*1165 ANTENNA__1314__RESET_B
*1166 ANTENNA__1315__RESET_B
*1167 ANTENNA__1316__RESET_B
*1168 ANTENNA__1352__A
*1169 ANTENNA__1362__A
*1170 ANTENNA__1363__A
*1171 ANTENNA__1370__A
*1172 ANTENNA__1372__A
*1173 ANTENNA__1376__A
*1174 ANTENNA_clkbuf_0_clk_A
*1175 ANTENNA_fanout114_X
*1176 ANTENNA_fanout115_A
*1177 ANTENNA_fanout116_A
*1178 ANTENNA_fanout117_A
*1179 ANTENNA_fanout118_A
*1180 ANTENNA_fanout118_X
*1181 ANTENNA_fanout119_A
*1182 ANTENNA_fanout120_A
*1183 ANTENNA_fanout121_A
*1184 ANTENNA_fanout122_A
*1185 ANTENNA_fanout123_A
*1186 ANTENNA_fanout123_X
*1187 ANTENNA_fanout124_X
*1188 ANTENNA_fanout90_X
*1189 ANTENNA_fanout98_X
*1190 ANTENNA_input10_A
*1191 ANTENNA_input11_A
*1192 ANTENNA_input12_A
*1193 ANTENNA_input12_X
*1194 ANTENNA_input13_A
*1195 ANTENNA_input14_A
*1196 ANTENNA_input14_X
*1197 ANTENNA_input15_A
*1198 ANTENNA_input15_X
*1199 ANTENNA_input16_A
*1200 ANTENNA_input17_A
*1201 ANTENNA_input18_A
*1202 ANTENNA_input18_X
*1203 ANTENNA_input19_A
*1204 ANTENNA_input1_A
*1205 ANTENNA_input1_X
*1206 ANTENNA_input20_A
*1207 ANTENNA_input2_A
*1208 ANTENNA_input2_X
*1209 ANTENNA_input3_A
*1210 ANTENNA_input3_X
*1211 ANTENNA_input4_A
*1212 ANTENNA_input4_X
*1213 ANTENNA_input5_A
*1214 ANTENNA_input5_X
*1215 ANTENNA_input6_A
*1216 ANTENNA_input6_X
*1217 ANTENNA_input7_A
*1218 ANTENNA_input7_X
*1219 ANTENNA_input8_A
*1220 ANTENNA_input8_X
*1221 ANTENNA_input9_A
*1222 ANTENNA_output48_A
*1223 FILLER_0_109
*1224 FILLER_0_111
*1225 FILLER_0_113
*1226 FILLER_0_125
*1227 FILLER_0_137
*1228 FILLER_0_139
*1229 FILLER_0_141
*1230 FILLER_0_153
*1231 FILLER_0_165
*1232 FILLER_0_167
*1233 FILLER_0_169
*1234 FILLER_0_18
*1235 FILLER_0_181
*1236 FILLER_0_193
*1237 FILLER_0_195
*1238 FILLER_0_197
*1239 FILLER_0_209
*1240 FILLER_0_221
*1241 FILLER_0_223
*1242 FILLER_0_225
*1243 FILLER_0_237
*1244 FILLER_0_249
*1245 FILLER_0_251
*1246 FILLER_0_253
*1247 FILLER_0_26
*1248 FILLER_0_265
*1249 FILLER_0_277
*1250 FILLER_0_279
*1251 FILLER_0_281
*1252 FILLER_0_29
*1253 FILLER_0_293
*1254 FILLER_0_305
*1255 FILLER_0_307
*1256 FILLER_0_309
*1257 FILLER_0_321
*1258 FILLER_0_333
*1259 FILLER_0_335
*1260 FILLER_0_337
*1261 FILLER_0_349
*1262 FILLER_0_361
*1263 FILLER_0_363
*1264 FILLER_0_365
*1265 FILLER_0_373
*1266 FILLER_0_41
*1267 FILLER_0_53
*1268 FILLER_0_55
*1269 FILLER_0_57
*1270 FILLER_0_6
*1271 FILLER_0_69
*1272 FILLER_0_81
*1273 FILLER_0_83
*1274 FILLER_0_85
*1275 FILLER_0_97
*1276 FILLER_10_109
*1277 FILLER_10_121
*1278 FILLER_10_133
*1279 FILLER_10_137
*1280 FILLER_10_139
*1281 FILLER_10_141
*1282 FILLER_10_15
*1283 FILLER_10_153
*1284 FILLER_10_165
*1285 FILLER_10_177
*1286 FILLER_10_189
*1287 FILLER_10_193
*1288 FILLER_10_195
*1289 FILLER_10_197
*1290 FILLER_10_209
*1291 FILLER_10_221
*1292 FILLER_10_233
*1293 FILLER_10_245
*1294 FILLER_10_249
*1295 FILLER_10_251
*1296 FILLER_10_253
*1297 FILLER_10_265
*1298 FILLER_10_27
*1299 FILLER_10_277
*1300 FILLER_10_289
*1301 FILLER_10_29
*1302 FILLER_10_3
*1303 FILLER_10_301
*1304 FILLER_10_305
*1305 FILLER_10_307
*1306 FILLER_10_309
*1307 FILLER_10_321
*1308 FILLER_10_333
*1309 FILLER_10_345
*1310 FILLER_10_357
*1311 FILLER_10_361
*1312 FILLER_10_363
*1313 FILLER_10_365
*1314 FILLER_10_369
*1315 FILLER_10_41
*1316 FILLER_10_53
*1317 FILLER_10_65
*1318 FILLER_10_77
*1319 FILLER_10_81
*1320 FILLER_10_83
*1321 FILLER_10_85
*1322 FILLER_10_97
*1323 FILLER_11_105
*1324 FILLER_11_109
*1325 FILLER_11_111
*1326 FILLER_11_113
*1327 FILLER_11_125
*1328 FILLER_11_137
*1329 FILLER_11_145
*1330 FILLER_11_169
*1331 FILLER_11_177
*1332 FILLER_11_18
*1333 FILLER_11_218
*1334 FILLER_11_222
*1335 FILLER_11_225
*1336 FILLER_11_232
*1337 FILLER_11_244
*1338 FILLER_11_256
*1339 FILLER_11_268
*1340 FILLER_11_281
*1341 FILLER_11_293
*1342 FILLER_11_30
*1343 FILLER_11_305
*1344 FILLER_11_317
*1345 FILLER_11_329
*1346 FILLER_11_333
*1347 FILLER_11_335
*1348 FILLER_11_337
*1349 FILLER_11_349
*1350 FILLER_11_361
*1351 FILLER_11_365
*1352 FILLER_11_367
*1353 FILLER_11_42
*1354 FILLER_11_54
*1355 FILLER_11_57
*1356 FILLER_11_6
*1357 FILLER_11_69
*1358 FILLER_11_81
*1359 FILLER_11_93
*1360 FILLER_12_101
*1361 FILLER_12_115
*1362 FILLER_12_123
*1363 FILLER_12_131
*1364 FILLER_12_139
*1365 FILLER_12_15
*1366 FILLER_12_164
*1367 FILLER_12_168
*1368 FILLER_12_185
*1369 FILLER_12_193
*1370 FILLER_12_195
*1371 FILLER_12_197
*1372 FILLER_12_209
*1373 FILLER_12_224
*1374 FILLER_12_247
*1375 FILLER_12_251
*1376 FILLER_12_253
*1377 FILLER_12_265
*1378 FILLER_12_27
*1379 FILLER_12_288
*1380 FILLER_12_29
*1381 FILLER_12_3
*1382 FILLER_12_300
*1383 FILLER_12_309
*1384 FILLER_12_321
*1385 FILLER_12_333
*1386 FILLER_12_345
*1387 FILLER_12_357
*1388 FILLER_12_361
*1389 FILLER_12_363
*1390 FILLER_12_365
*1391 FILLER_12_369
*1392 FILLER_12_41
*1393 FILLER_12_53
*1394 FILLER_12_65
*1395 FILLER_12_69
*1396 FILLER_12_74
*1397 FILLER_12_82
*1398 FILLER_12_85
*1399 FILLER_12_97
*1400 FILLER_13_134
*1401 FILLER_13_146
*1402 FILLER_13_15
*1403 FILLER_13_158
*1404 FILLER_13_166
*1405 FILLER_13_169
*1406 FILLER_13_173
*1407 FILLER_13_177
*1408 FILLER_13_181
*1409 FILLER_13_184
*1410 FILLER_13_197
*1411 FILLER_13_209
*1412 FILLER_13_221
*1413 FILLER_13_223
*1414 FILLER_13_232
*1415 FILLER_13_244
*1416 FILLER_13_256
*1417 FILLER_13_268
*1418 FILLER_13_27
*1419 FILLER_13_281
*1420 FILLER_13_293
*1421 FILLER_13_3
*1422 FILLER_13_305
*1423 FILLER_13_317
*1424 FILLER_13_329
*1425 FILLER_13_333
*1426 FILLER_13_335
*1427 FILLER_13_337
*1428 FILLER_13_349
*1429 FILLER_13_361
*1430 FILLER_13_373
*1431 FILLER_13_39
*1432 FILLER_13_51
*1433 FILLER_13_55
*1434 FILLER_13_66
*1435 FILLER_13_74
*1436 FILLER_13_85
*1437 FILLER_13_89
*1438 FILLER_13_91
*1439 FILLER_14_102
*1440 FILLER_14_114
*1441 FILLER_14_126
*1442 FILLER_14_138
*1443 FILLER_14_141
*1444 FILLER_14_15
*1445 FILLER_14_153
*1446 FILLER_14_155
*1447 FILLER_14_158
*1448 FILLER_14_162
*1449 FILLER_14_167
*1450 FILLER_14_169
*1451 FILLER_14_204
*1452 FILLER_14_230
*1453 FILLER_14_238
*1454 FILLER_14_250
*1455 FILLER_14_253
*1456 FILLER_14_257
*1457 FILLER_14_266
*1458 FILLER_14_27
*1459 FILLER_14_284
*1460 FILLER_14_29
*1461 FILLER_14_3
*1462 FILLER_14_311
*1463 FILLER_14_323
*1464 FILLER_14_33
*1465 FILLER_14_335
*1466 FILLER_14_347
*1467 FILLER_14_35
*1468 FILLER_14_359
*1469 FILLER_14_363
*1470 FILLER_14_365
*1471 FILLER_14_369
*1472 FILLER_14_45
*1473 FILLER_14_57
*1474 FILLER_14_69
*1475 FILLER_14_81
*1476 FILLER_15_109
*1477 FILLER_15_111
*1478 FILLER_15_113
*1479 FILLER_15_125
*1480 FILLER_15_131
*1481 FILLER_15_139
*1482 FILLER_15_145
*1483 FILLER_15_147
*1484 FILLER_15_169
*1485 FILLER_15_179
*1486 FILLER_15_18
*1487 FILLER_15_187
*1488 FILLER_15_198
*1489 FILLER_15_202
*1490 FILLER_15_206
*1491 FILLER_15_218
*1492 FILLER_15_22
*1493 FILLER_15_223
*1494 FILLER_15_225
*1495 FILLER_15_229
*1496 FILLER_15_231
*1497 FILLER_15_236
*1498 FILLER_15_24
*1499 FILLER_15_248
*1500 FILLER_15_256
*1501 FILLER_15_262
*1502 FILLER_15_278
*1503 FILLER_15_298
*1504 FILLER_15_310
*1505 FILLER_15_322
*1506 FILLER_15_334
*1507 FILLER_15_337
*1508 FILLER_15_34
*1509 FILLER_15_349
*1510 FILLER_15_361
*1511 FILLER_15_369
*1512 FILLER_15_43
*1513 FILLER_15_55
*1514 FILLER_15_57
*1515 FILLER_15_6
*1516 FILLER_15_68
*1517 FILLER_15_72
*1518 FILLER_15_76
*1519 FILLER_15_78
*1520 FILLER_15_89
*1521 FILLER_15_93
*1522 FILLER_15_97
*1523 FILLER_16_107
*1524 FILLER_16_116
*1525 FILLER_16_132
*1526 FILLER_16_134
*1527 FILLER_16_138
*1528 FILLER_16_141
*1529 FILLER_16_144
*1530 FILLER_16_15
*1531 FILLER_16_156
*1532 FILLER_16_174
*1533 FILLER_16_186
*1534 FILLER_16_194
*1535 FILLER_16_219
*1536 FILLER_16_221
*1537 FILLER_16_226
*1538 FILLER_16_228
*1539 FILLER_16_242
*1540 FILLER_16_244
*1541 FILLER_16_247
*1542 FILLER_16_251
*1543 FILLER_16_253
*1544 FILLER_16_265
*1545 FILLER_16_27
*1546 FILLER_16_277
*1547 FILLER_16_285
*1548 FILLER_16_289
*1549 FILLER_16_29
*1550 FILLER_16_3
*1551 FILLER_16_301
*1552 FILLER_16_305
*1553 FILLER_16_307
*1554 FILLER_16_309
*1555 FILLER_16_321
*1556 FILLER_16_333
*1557 FILLER_16_345
*1558 FILLER_16_357
*1559 FILLER_16_361
*1560 FILLER_16_363
*1561 FILLER_16_365
*1562 FILLER_16_369
*1563 FILLER_16_37
*1564 FILLER_16_39
*1565 FILLER_16_50
*1566 FILLER_16_54
*1567 FILLER_16_62
*1568 FILLER_16_74
*1569 FILLER_16_82
*1570 FILLER_16_85
*1571 FILLER_16_87
*1572 FILLER_17_104
*1573 FILLER_17_108
*1574 FILLER_17_120
*1575 FILLER_17_128
*1576 FILLER_17_152
*1577 FILLER_17_164
*1578 FILLER_17_169
*1579 FILLER_17_181
*1580 FILLER_17_195
*1581 FILLER_17_207
*1582 FILLER_17_219
*1583 FILLER_17_223
*1584 FILLER_17_231
*1585 FILLER_17_24
*1586 FILLER_17_258
*1587 FILLER_17_262
*1588 FILLER_17_268
*1589 FILLER_17_281
*1590 FILLER_17_283
*1591 FILLER_17_290
*1592 FILLER_17_302
*1593 FILLER_17_314
*1594 FILLER_17_326
*1595 FILLER_17_334
*1596 FILLER_17_337
*1597 FILLER_17_349
*1598 FILLER_17_36
*1599 FILLER_17_361
*1600 FILLER_17_369
*1601 FILLER_17_48
*1602 FILLER_17_64
*1603 FILLER_17_72
*1604 FILLER_17_80
*1605 FILLER_17_9
*1606 FILLER_17_92
*1607 FILLER_18_111
*1608 FILLER_18_123
*1609 FILLER_18_135
*1610 FILLER_18_139
*1611 FILLER_18_14
*1612 FILLER_18_146
*1613 FILLER_18_158
*1614 FILLER_18_165
*1615 FILLER_18_169
*1616 FILLER_18_178
*1617 FILLER_18_19
*1618 FILLER_18_190
*1619 FILLER_18_194
*1620 FILLER_18_197
*1621 FILLER_18_205
*1622 FILLER_18_213
*1623 FILLER_18_225
*1624 FILLER_18_237
*1625 FILLER_18_240
*1626 FILLER_18_253
*1627 FILLER_18_27
*1628 FILLER_18_277
*1629 FILLER_18_287
*1630 FILLER_18_29
*1631 FILLER_18_311
*1632 FILLER_18_323
*1633 FILLER_18_33
*1634 FILLER_18_335
*1635 FILLER_18_347
*1636 FILLER_18_35
*1637 FILLER_18_359
*1638 FILLER_18_363
*1639 FILLER_18_365
*1640 FILLER_18_373
*1641 FILLER_18_48
*1642 FILLER_18_56
*1643 FILLER_18_58
*1644 FILLER_18_62
*1645 FILLER_18_66
*1646 FILLER_18_68
*1647 FILLER_18_99
*1648 FILLER_19_113
*1649 FILLER_19_115
*1650 FILLER_19_121
*1651 FILLER_19_125
*1652 FILLER_19_127
*1653 FILLER_19_13
*1654 FILLER_19_136
*1655 FILLER_19_138
*1656 FILLER_19_144
*1657 FILLER_19_15
*1658 FILLER_19_169
*1659 FILLER_19_183
*1660 FILLER_19_192
*1661 FILLER_19_214
*1662 FILLER_19_222
*1663 FILLER_19_225
*1664 FILLER_19_237
*1665 FILLER_19_249
*1666 FILLER_19_26
*1667 FILLER_19_261
*1668 FILLER_19_273
*1669 FILLER_19_277
*1670 FILLER_19_279
*1671 FILLER_19_30
*1672 FILLER_19_303
*1673 FILLER_19_315
*1674 FILLER_19_327
*1675 FILLER_19_335
*1676 FILLER_19_337
*1677 FILLER_19_349
*1678 FILLER_19_361
*1679 FILLER_19_365
*1680 FILLER_19_41
*1681 FILLER_19_43
*1682 FILLER_19_49
*1683 FILLER_19_5
*1684 FILLER_19_53
*1685 FILLER_19_55
*1686 FILLER_19_67
*1687 FILLER_19_79
*1688 FILLER_19_91
*1689 FILLER_19_95
*1690 FILLER_1_105
*1691 FILLER_1_109
*1692 FILLER_1_111
*1693 FILLER_1_113
*1694 FILLER_1_125
*1695 FILLER_1_137
*1696 FILLER_1_149
*1697 FILLER_1_161
*1698 FILLER_1_165
*1699 FILLER_1_167
*1700 FILLER_1_169
*1701 FILLER_1_18
*1702 FILLER_1_181
*1703 FILLER_1_193
*1704 FILLER_1_205
*1705 FILLER_1_217
*1706 FILLER_1_221
*1707 FILLER_1_223
*1708 FILLER_1_225
*1709 FILLER_1_237
*1710 FILLER_1_249
*1711 FILLER_1_261
*1712 FILLER_1_273
*1713 FILLER_1_277
*1714 FILLER_1_279
*1715 FILLER_1_281
*1716 FILLER_1_293
*1717 FILLER_1_30
*1718 FILLER_1_305
*1719 FILLER_1_317
*1720 FILLER_1_329
*1721 FILLER_1_333
*1722 FILLER_1_335
*1723 FILLER_1_337
*1724 FILLER_1_349
*1725 FILLER_1_361
*1726 FILLER_1_373
*1727 FILLER_1_42
*1728 FILLER_1_54
*1729 FILLER_1_57
*1730 FILLER_1_6
*1731 FILLER_1_69
*1732 FILLER_1_81
*1733 FILLER_1_93
*1734 FILLER_20_101
*1735 FILLER_20_108
*1736 FILLER_20_112
*1737 FILLER_20_13
*1738 FILLER_20_138
*1739 FILLER_20_141
*1740 FILLER_20_150
*1741 FILLER_20_154
*1742 FILLER_20_161
*1743 FILLER_20_169
*1744 FILLER_20_171
*1745 FILLER_20_185
*1746 FILLER_20_193
*1747 FILLER_20_195
*1748 FILLER_20_204