*SPEF "ieee 1481-1999"
*DESIGN "team_00"
*DATE "22:04:29 Wednesday March 04, 2026"
*VENDOR "The OpenROAD Project"
*PROGRAM "OpenROAD"
*VERSION "edf00dff99f6c40d67a30c0e22a8191c5d2ed9d6"
*DESIGN_FLOW "NAME_SCOPE LOCAL" "PIN_CAP NONE"
*DIVIDER /
*DELIMITER :
*BUS_DELIMITER []
*T_UNIT 1 NS
*C_UNIT 1 PF
*R_UNIT 1 OHM
*L_UNIT 1 HENRY

*NAME_MAP
*1 clk
*2 done
*3 en
*4 gpio_in[0]
*5 gpio_in[10]
*6 gpio_in[11]
*7 gpio_in[12]
*8 gpio_in[13]
*9 gpio_in[14]
*10 gpio_in[15]
*11 gpio_in[16]
*12 gpio_in[17]
*13 gpio_in[18]
*14 gpio_in[19]
*15 gpio_in[1]
*16 gpio_in[20]
*17 gpio_in[21]
*18 gpio_in[22]
*19 gpio_in[23]
*20 gpio_in[24]
*21 gpio_in[25]
*22 gpio_in[26]
*23 gpio_in[27]
*24 gpio_in[28]
*25 gpio_in[29]
*26 gpio_in[2]
*27 gpio_in[30]
*28 gpio_in[31]
*29 gpio_in[32]
*30 gpio_in[33]
*31 gpio_in[3]
*32 gpio_in[4]
*33 gpio_in[5]
*34 gpio_in[6]
*35 gpio_in[7]
*36 gpio_in[8]
*37 gpio_in[9]
*38 gpio_oeb[0]
*39 gpio_oeb[10]
*40 gpio_oeb[11]
*41 gpio_oeb[12]
*42 gpio_oeb[13]
*43 gpio_oeb[14]
*44 gpio_oeb[15]
*45 gpio_oeb[16]
*46 gpio_oeb[17]
*47 gpio_oeb[18]
*48 gpio_oeb[19]
*49 gpio_oeb[1]
*50 gpio_oeb[20]
*51 gpio_oeb[21]
*52 gpio_oeb[22]
*53 gpio_oeb[23]
*54 gpio_oeb[24]
*55 gpio_oeb[25]
*56 gpio_oeb[26]
*57 gpio_oeb[27]
*58 gpio_oeb[28]
*59 gpio_oeb[29]
*60 gpio_oeb[2]
*61 gpio_oeb[30]
*62 gpio_oeb[31]
*63 gpio_oeb[32]
*64 gpio_oeb[33]
*65 gpio_oeb[3]
*66 gpio_oeb[4]
*67 gpio_oeb[5]
*68 gpio_oeb[6]
*69 gpio_oeb[7]
*70 gpio_oeb[8]
*71 gpio_oeb[9]
*72 gpio_out[0]
*73 gpio_out[10]
*74 gpio_out[11]
*75 gpio_out[12]
*76 gpio_out[13]
*77 gpio_out[14]
*78 gpio_out[15]
*79 gpio_out[16]
*80 gpio_out[17]
*81 gpio_out[18]
*82 gpio_out[19]
*83 gpio_out[1]
*84 gpio_out[20]
*85 gpio_out[21]
*86 gpio_out[22]
*87 gpio_out[23]
*88 gpio_out[24]
*89 gpio_out[25]
*90 gpio_out[26]
*91 gpio_out[27]
*92 gpio_out[28]
*93 gpio_out[29]
*94 gpio_out[2]
*95 gpio_out[30]
*96 gpio_out[31]
*97 gpio_out[32]
*98 gpio_out[33]
*99 gpio_out[3]
*100 gpio_out[4]
*101 gpio_out[5]
*102 gpio_out[6]
*103 gpio_out[7]
*104 gpio_out[8]
*105 gpio_out[9]
*106 la_data_in[0]
*107 la_data_in[10]
*108 la_data_in[11]
*109 la_data_in[12]
*110 la_data_in[13]
*111 la_data_in[14]
*112 la_data_in[15]
*113 la_data_in[16]
*114 la_data_in[17]
*115 la_data_in[18]
*116 la_data_in[19]
*117 la_data_in[1]
*118 la_data_in[20]
*119 la_data_in[21]
*120 la_data_in[22]
*121 la_data_in[23]
*122 la_data_in[24]
*123 la_data_in[25]
*124 la_data_in[26]
*125 la_data_in[27]
*126 la_data_in[28]
*127 la_data_in[29]
*128 la_data_in[2]
*129 la_data_in[30]
*130 la_data_in[31]
*131 la_data_in[3]
*132 la_data_in[4]
*133 la_data_in[5]
*134 la_data_in[6]
*135 la_data_in[7]
*136 la_data_in[8]
*137 la_data_in[9]
*138 net128
*139 net138
*140 net139
*141 net140
*142 net141
*143 net142
*144 net143
*145 net144
*146 net145
*147 net146
*148 net147
*149 net129
*150 net148
*151 net149
*152 net150
*153 net151
*154 net152
*155 net153
*156 net154
*157 net155
*158 net156
*159 net157
*160 net130
*161 net158
*162 net159
*163 net131
*164 net132
*165 net133
*166 net134
*167 net135
*168 net136
*169 net137
*170 la_oenb[0]
*171 la_oenb[10]
*172 la_oenb[11]
*173 la_oenb[12]
*174 la_oenb[13]
*175 la_oenb[14]
*176 la_oenb[15]
*177 la_oenb[16]
*178 la_oenb[17]
*179 la_oenb[18]
*180 la_oenb[19]
*181 la_oenb[1]
*182 la_oenb[20]
*183 la_oenb[21]
*184 la_oenb[22]
*185 la_oenb[23]
*186 la_oenb[24]
*187 la_oenb[25]
*188 la_oenb[26]
*189 la_oenb[27]
*190 la_oenb[28]
*191 la_oenb[29]
*192 la_oenb[2]
*193 la_oenb[30]
*194 la_oenb[31]
*195 la_oenb[3]
*196 la_oenb[4]
*197 la_oenb[5]
*198 la_oenb[6]
*199 la_oenb[7]
*200 la_oenb[8]
*201 la_oenb[9]
*202 nrst
*203 prescaler[0]
*204 prescaler[10]
*205 prescaler[11]
*206 prescaler[12]
*207 prescaler[13]
*208 prescaler[1]
*209 prescaler[2]
*210 prescaler[3]
*211 prescaler[4]
*212 prescaler[5]
*213 prescaler[6]
*214 prescaler[7]
*215 prescaler[8]
*216 prescaler[9]
*219 _0000_
*220 _0001_
*221 _0002_
*222 _0003_
*223 _0004_
*224 _0005_
*225 _0006_
*226 _0007_
*227 _0008_
*228 _0009_
*229 _0010_
*230 _0011_
*231 _0012_
*232 _0013_
*233 _0014_
*234 _0015_
*235 _0016_
*236 _0017_
*237 _0018_
*238 _0019_
*239 _0020_
*240 _0021_
*241 _0022_
*242 _0023_
*243 _0024_
*244 _0025_
*245 _0026_
*246 _0027_
*247 _0028_
*248 _0029_
*249 _0030_
*250 _0031_
*251 _0032_
*252 _0033_
*253 _0034_
*254 _0035_
*255 _0036_
*256 _0037_
*257 _0038_
*258 _0039_
*259 _0040_
*260 _0041_
*261 _0042_
*262 _0043_
*263 _0044_
*264 _0045_
*265 _0046_
*266 _0047_
*267 _0048_
*268 _0049_
*269 _0050_
*270 _0051_
*271 _0052_
*272 _0053_
*273 _0054_
*274 _0055_
*275 _0056_
*276 _0057_
*277 _0058_
*278 _0059_
*279 _0060_
*280 _0061_
*281 _0062_
*282 _0063_
*283 _0064_
*284 _0065_
*285 _0066_
*286 _0067_
*287 _0068_
*288 _0069_
*289 _0070_
*290 _0071_
*291 _0072_
*292 _0073_
*293 _0074_
*294 _0075_
*295 _0076_
*296 _0077_
*297 _0078_
*298 _0079_
*299 _0080_
*300 _0081_
*301 _0082_
*302 _0083_
*303 _0084_
*304 _0085_
*305 _0086_
*306 _0087_
*307 _0088_
*308 _0089_
*309 _0090_
*310 _0091_
*311 _0092_
*312 _0093_
*313 _0094_
*314 _0095_
*315 _0096_
*316 _0097_
*317 _0098_
*318 _0099_
*319 _0100_
*320 _0101_
*321 _0102_
*322 _0103_
*323 _0104_
*324 _0105_
*325 _0106_
*326 _0107_
*327 _0108_
*328 _0109_
*329 _0110_
*330 _0111_
*331 _0112_
*332 _0113_
*333 _0114_
*334 _0115_
*335 _0116_
*336 _0117_
*337 _0118_
*338 _0119_
*339 _0120_
*340 _0121_
*341 _0122_
*342 _0123_
*343 _0124_
*344 _0125_
*345 _0126_
*346 _0127_
*347 _0128_
*348 _0129_
*349 _0130_
*350 _0131_
*351 _0132_
*352 _0133_
*353 _0134_
*354 _0135_
*355 _0136_
*356 _0137_
*357 _0138_
*358 _0139_
*359 _0140_
*360 _0141_
*361 _0142_
*362 _0143_
*363 _0144_
*364 _0145_
*365 _0146_
*366 _0147_
*367 _0148_
*368 _0149_
*369 _0150_
*370 _0151_
*371 _0152_
*372 _0153_
*373 _0154_
*374 _0155_
*375 _0156_
*376 _0157_
*377 _0158_
*378 _0159_
*379 _0160_
*380 _0161_
*381 _0162_
*382 _0163_
*383 _0164_
*384 _0165_
*385 _0166_
*386 _0167_
*387 _0168_
*388 _0169_
*389 _0170_
*390 _0171_
*391 _0172_
*392 _0173_
*393 _0174_
*394 _0175_
*395 _0176_
*396 _0177_
*397 _0178_
*398 _0179_
*399 _0180_
*400 _0181_
*401 _0182_
*402 _0183_
*403 _0184_
*404 _0185_
*405 _0186_
*406 _0187_
*407 _0188_
*408 _0189_
*409 _0190_
*410 _0191_
*411 _0192_
*412 _0193_
*413 _0194_
*414 _0195_
*415 _0196_
*416 _0197_
*417 _0198_
*418 _0199_
*419 _0200_
*420 _0201_
*421 _0202_
*422 _0203_
*423 _0204_
*424 _0205_
*425 _0206_
*426 _0207_
*427 _0208_
*428 _0209_
*429 _0210_
*430 _0211_
*431 _0212_
*432 _0213_
*433 _0214_
*434 _0215_
*435 _0216_
*436 _0217_
*437 _0218_
*438 _0219_
*439 _0220_
*440 _0221_
*441 _0222_
*442 _0223_
*443 _0224_
*444 _0225_
*445 _0226_
*446 _0227_
*447 _0228_
*448 _0229_
*449 _0230_
*450 _0231_
*451 _0232_
*452 _0233_
*453 _0234_
*454 _0235_
*455 _0236_
*456 _0237_
*457 _0238_
*458 _0239_
*459 _0240_
*460 _0241_
*461 _0242_
*462 _0243_
*463 _0244_
*464 _0245_
*465 _0246_
*466 _0247_
*467 _0248_
*468 _0249_
*469 _0250_
*470 _0251_
*471 _0252_
*472 _0253_
*473 _0254_
*474 _0255_
*475 _0256_
*476 _0257_
*477 _0258_
*478 _0259_
*479 _0260_
*480 _0261_
*481 _0262_
*482 _0263_
*483 _0264_
*484 _0265_
*485 _0266_
*486 _0267_
*487 _0268_
*488 _0269_
*489 _0270_
*490 _0271_
*491 _0272_
*492 _0273_
*493 _0274_
*494 _0275_
*495 _0276_
*496 _0277_
*497 _0278_
*498 _0279_
*499 _0280_
*500 _0281_
*501 _0282_
*502 _0283_
*503 _0284_
*504 _0285_
*505 _0286_
*506 _0287_
*507 _0288_
*508 _0289_
*509 _0290_
*510 _0291_
*511 _0292_
*512 _0293_
*513 _0294_
*514 _0295_
*515 _0296_
*516 _0297_
*517 _0298_
*518 _0299_
*519 _0300_
*520 _0301_
*521 _0302_
*522 _0303_
*523 _0304_
*524 _0305_
*525 _0306_
*526 _0307_
*527 _0308_
*528 _0309_
*529 _0310_
*530 _0311_
*531 _0312_
*532 _0313_
*533 _0314_
*534 _0315_
*535 _0316_
*536 _0317_
*537 _0318_
*538 _0319_
*539 _0320_
*540 _0321_
*541 _0322_
*542 _0323_
*543 _0324_
*544 _0325_
*545 _0326_
*546 _0327_
*547 _0328_
*548 _0329_
*549 _0330_
*550 _0331_
*551 _0332_
*552 _0333_
*553 _0334_
*554 _0335_
*555 _0336_
*556 _0337_
*557 _0338_
*558 _0339_
*559 _0340_
*560 _0341_
*561 _0342_
*562 _0343_
*563 _0344_
*564 _0345_
*565 _0346_
*566 _0347_
*567 _0348_
*568 _0349_
*569 _0350_
*570 _0351_
*571 _0352_
*572 _0353_
*573 _0354_
*574 _0355_
*575 _0356_
*576 _0357_
*577 _0358_
*578 _0359_
*579 _0360_
*580 _0361_
*581 _0362_
*582 _0363_
*583 _0364_
*584 _0365_
*585 _0366_
*586 _0367_
*587 _0368_
*588 _0369_
*589 _0370_
*590 _0371_
*591 _0372_
*592 _0373_
*593 _0374_
*594 _0375_
*595 _0376_
*596 _0377_
*597 _0378_
*598 _0379_
*599 _0380_
*600 _0381_
*601 _0382_
*602 _0383_
*603 _0384_
*604 _0385_
*605 _0386_
*606 _0387_
*607 _0388_
*608 _0389_
*609 _0390_
*610 _0391_
*611 _0392_
*612 _0393_
*613 _0394_
*614 _0395_
*615 _0396_
*616 _0397_
*617 _0398_
*618 _0399_
*619 _0400_
*620 _0401_
*621 _0402_
*622 _0403_
*623 _0404_
*624 _0405_
*625 _0406_
*626 _0407_
*627 _0408_
*628 _0409_
*629 _0410_
*630 _0411_
*631 _0412_
*632 _0413_
*633 _0414_
*634 _0415_
*635 _0416_
*636 _0417_
*637 _0418_
*638 _0419_
*639 _0420_
*640 _0421_
*641 _0422_
*642 _0423_
*643 _0424_
*644 _0425_
*645 _0426_
*646 _0427_
*647 _0428_
*648 _0429_
*649 _0430_
*650 _0431_
*651 _0432_
*652 _0433_
*653 _0434_
*654 _0435_
*655 _0436_
*656 _0437_
*657 _0438_
*658 _0439_
*659 _0440_
*660 _0441_
*661 _0442_
*662 _0443_
*663 _0444_
*664 _0445_
*665 _0446_
*666 _0447_
*667 _0448_
*668 _0449_
*669 _0450_
*670 _0451_
*671 _0452_
*672 _0453_
*673 _0454_
*674 _0455_
*675 _0456_
*676 _0457_
*677 _0458_
*678 _0459_
*679 _0460_
*680 _0461_
*681 _0462_
*682 _0463_
*683 _0464_
*684 _0465_
*685 _0466_
*686 _0467_
*687 _0468_
*688 _0469_
*689 _0470_
*690 _0471_
*691 _0472_
*692 _0473_
*693 _0474_
*694 _0475_
*695 _0476_
*696 _0477_
*697 _0478_
*698 _0479_
*699 _0480_
*700 _0481_
*701 _0482_
*702 _0483_
*703 _0484_
*704 _0485_
*705 _0486_
*706 _0487_
*707 _0488_
*708 _0489_
*709 _0490_
*710 _0491_
*711 _0492_
*712 _0493_
*713 _0494_
*714 _0495_
*715 _0496_
*716 _0497_
*717 _0498_
*718 _0499_
*719 _0500_
*720 _0501_
*721 _0502_
*722 _0503_
*723 _0504_
*724 _0505_
*725 _0506_
*726 _0507_
*727 _0508_
*728 _0509_
*729 _0510_
*730 _0511_
*731 _0512_
*732 _0513_
*733 _0514_
*734 _0515_
*735 _0516_
*736 _0517_
*737 _0518_
*738 _0519_
*739 _0520_
*740 _0521_
*741 _0522_
*742 _0523_
*743 _0524_
*744 _0525_
*745 _0526_
*746 _0527_
*747 _0528_
*748 _0529_
*749 _0530_
*750 _0531_
*751 _0532_
*752 _0533_
*753 _0534_
*754 _0535_
*755 _0536_
*756 _0537_
*757 _0538_
*758 _0539_
*759 _0540_
*760 _0541_
*761 _0542_
*762 _0543_
*763 _0544_
*764 _0545_
*765 _0546_
*766 _0547_
*767 _0548_
*768 _0549_
*769 _0550_
*770 _0551_
*771 _0552_
*772 _0553_
*773 _0554_
*774 _0555_
*775 _0556_
*776 _0557_
*777 _0558_
*778 _0559_
*779 _0560_
*780 _0561_
*781 _0562_
*782 _0563_
*783 _0564_
*784 _0565_
*785 _0566_
*786 _0567_
*787 _0568_
*788 _0569_
*789 _0570_
*790 _0571_
*791 _0572_
*792 _0573_
*793 _0574_
*794 _0575_
*795 _0576_
*796 _0577_
*797 _0578_
*798 _0579_
*799 _0580_
*800 _0581_
*801 _0582_
*802 _0583_
*803 _0584_
*804 _0585_
*805 _0586_
*806 _0587_
*807 _0588_
*808 _0589_
*809 _0590_
*810 _0591_
*811 _0592_
*812 _0593_
*813 _0594_
*814 _0595_
*815 _0596_
*816 _0597_
*817 _0598_
*818 _0599_
*819 _0600_
*820 _0601_
*821 _0602_
*822 _0603_
*823 _0604_
*824 clk_divider\.count_out\[0\]
*825 clk_divider\.count_out\[10\]
*826 clk_divider\.count_out\[11\]
*827 clk_divider\.count_out\[12\]
*828 clk_divider\.count_out\[13\]
*829 clk_divider\.count_out\[14\]
*830 clk_divider\.count_out\[15\]
*831 clk_divider\.count_out\[16\]
*832 clk_divider\.count_out\[17\]
*833 clk_divider\.count_out\[18\]
*834 clk_divider\.count_out\[19\]
*835 clk_divider\.count_out\[1\]
*836 clk_divider\.count_out\[20\]
*837 clk_divider\.count_out\[21\]
*838 clk_divider\.count_out\[22\]
*839 clk_divider\.count_out\[23\]
*840 clk_divider\.count_out\[24\]
*841 clk_divider\.count_out\[25\]
*842 clk_divider\.count_out\[26\]
*843 clk_divider\.count_out\[27\]
*844 clk_divider\.count_out\[2\]
*845 clk_divider\.count_out\[3\]
*846 clk_divider\.count_out\[4\]
*847 clk_divider\.count_out\[5\]
*848 clk_divider\.count_out\[6\]
*849 clk_divider\.count_out\[7\]
*850 clk_divider\.count_out\[8\]
*851 clk_divider\.count_out\[9\]
*852 clk_divider\.next_count\[0\]
*853 clk_divider\.next_count\[10\]
*854 clk_divider\.next_count\[11\]
*855 clk_divider\.next_count\[12\]
*856 clk_divider\.next_count\[13\]
*857 clk_divider\.next_count\[14\]
*858 clk_divider\.next_count\[15\]
*859 clk_divider\.next_count\[16\]
*860 clk_divider\.next_count\[17\]
*861 clk_divider\.next_count\[18\]
*862 clk_divider\.next_count\[19\]
*863 clk_divider\.next_count\[1\]
*864 clk_divider\.next_count\[20\]
*865 clk_divider\.next_count\[21\]
*866 clk_divider\.next_count\[22\]
*867 clk_divider\.next_count\[23\]
*868 clk_divider\.next_count\[24\]
*869 clk_divider\.next_count\[25\]
*870 clk_divider\.next_count\[26\]
*871 clk_divider\.next_count\[27\]
*872 clk_divider\.next_count\[2\]
*873 clk_divider\.next_count\[3\]
*874 clk_divider\.next_count\[4\]
*875 clk_divider\.next_count\[5\]
*876 clk_divider\.next_count\[6\]
*877 clk_divider\.next_count\[7\]
*878 clk_divider\.next_count\[8\]
*879 clk_divider\.next_count\[9\]
*880 clk_divider\.next_flag
*881 clk_divider\.rollover_flag
*882 clknet_0_clk
*883 clknet_2_0__leaf_clk
*884 clknet_2_1__leaf_clk
*885 clknet_2_2__leaf_clk
*886 clknet_2_3__leaf_clk
*887 count\[0\]
*888 count\[1\]
*889 count\[2\]
*890 count\[3\]
*891 count\[4\]
*892 count\[5\]
*893 counter_to_35\.next_count\[0\]
*894 counter_to_35\.next_count\[1\]
*895 counter_to_35\.next_count\[2\]
*896 counter_to_35\.next_count\[3\]
*897 counter_to_35\.next_count\[4\]
*898 counter_to_35\.next_count\[5\]
*899 counter_to_35\.next_flag
*900 net1
*901 net10
*902 net100
*903 net101
*904 net102
*905 net103
*906 net104
*907 net105
*908 net106
*909 net107
*910 net108
*911 net109
*912 net11
*913 net110
*914 net111
*915 net112
*916 net113
*917 net114
*918 net115
*919 net116
*920 net117
*921 net118
*922 net119
*923 net12
*924 net120
*925 net121
*926 net122
*927 net123
*928 net124
*929 net125
*930 net126
*931 net127
*932 net13
*933 net14
*934 net15
*935 net16
*936 net17
*937 net18
*938 net19
*939 net2
*940 net20
*941 net21
*942 net22
*943 net23
*944 net24
*945 net25
*946 net26
*947 net27
*948 net28
*949 net29
*950 net3
*951 net30
*952 net31
*953 net32
*954 net33
*955 net34
*956 net35
*957 net36
*958 net37
*959 net38
*960 net39
*961 net4
*962 net40
*963 net41
*964 net42
*965 net43
*966 net44
*967 net45
*968 net46
*969 net47
*970 net48
*971 net49
*972 net5
*973 net50
*974 net51
*975 net52
*976 net53
*977 net54
*978 net55
*979 net56
*980 net57
*981 net58
*982 net59
*983 net6
*984 net60
*985 net61
*986 net62
*987 net63
*988 net64
*989 net65
*990 net66
*991 net67
*992 net68
*993 net69
*994 net7
*995 net70
*996 net71
*997 net72
*998 net73
*999 net74
*1000 net75
*1001 net76
*1002 net77
*1003 net78
*1004 net79
*1005 net8
*1006 net80
*1007 net81
*1008 net82
*1009 net83
*1010 net84
*1011 net85
*1012 net86
*1013 net87
*1014 net88
*1015 net89
*1016 net9
*1017 net90
*1018 net91
*1019 net92
*1020 net93
*1021 net94
*1022 net95
*1023 net96
*1024 net97
*1025 net98
*1026 net99
*1027 ANTENNA__0608__A
*1028 ANTENNA__0610__A
*1029 ANTENNA__0611__A
*1030 ANTENNA__0612__A
*1031 ANTENNA__0613__A
*1032 ANTENNA__0615__A
*1033 ANTENNA__0616__A
*1034 ANTENNA__0616__Y
*1035 ANTENNA__0618__A
*1036 ANTENNA__0627__A
*1037 ANTENNA__0632__A
*1038 ANTENNA__0632__X
*1039 ANTENNA__0634__B1
*1040 ANTENNA__0636__B1_N
*1041 ANTENNA__0642__B1
*1042 ANTENNA__0643__A
*1043 ANTENNA__0643__B
*1044 ANTENNA__0646__A
*1045 ANTENNA__0646__B
*1046 ANTENNA__0647__A
*1047 ANTENNA__0648__A
*1048 ANTENNA__0648__B
*1049 ANTENNA__0649__A
*1050 ANTENNA__0651__B
*1051 ANTENNA__0653__A2
*1052 ANTENNA__0654__B
*1053 ANTENNA__0655__A
*1054 ANTENNA__0655__B
*1055 ANTENNA__0656__A1
*1056 ANTENNA__0657__A
*1057 ANTENNA__0664__A1
*1058 ANTENNA__0664__A2
*1059 ANTENNA__0665__B
*1060 ANTENNA__0669__A
*1061 ANTENNA__0669__B
*1062 ANTENNA__0670__A1
*1063 ANTENNA__0670__A2
*1064 ANTENNA__0674__A
*1065 ANTENNA__0676__A
*1066 ANTENNA__0677__A
*1067 ANTENNA__0680__A
*1068 ANTENNA__0681__A
*1069 ANTENNA__0686__A
*1070 ANTENNA__0687__A
*1071 ANTENNA__0688__A
*1072 ANTENNA__0689__A
*1073 ANTENNA__0689__B
*1074 ANTENNA__0690__B
*1075 ANTENNA__0691__A
*1076 ANTENNA__0691__B
*1077 ANTENNA__0692__A
*1078 ANTENNA__0693__A
*1079 ANTENNA__0695__A
*1080 ANTENNA__0697__A1
*1081 ANTENNA__0698__B
*1082 ANTENNA__0700__B
*1083 ANTENNA__0701__A
*1084 ANTENNA__0702__A
*1085 ANTENNA__0708__A1
*1086 ANTENNA__0709__A2
*1087 ANTENNA__0710__B
*1088 ANTENNA__0712__A
*1089 ANTENNA__0713__A
*1090 ANTENNA__0714__A
*1091 ANTENNA__0723__A
*1092 ANTENNA__0724__A2
*1093 ANTENNA__0727__A
*1094 ANTENNA__0727__B
*1095 ANTENNA__0733__A2
*1096 ANTENNA__0743__B
*1097 ANTENNA__0744__A
*1098 ANTENNA__0745__A
*1099 ANTENNA__0747__B
*1100 ANTENNA__0749__A2
*1101 ANTENNA__0758__A
*1102 ANTENNA__0763__A
*1103 ANTENNA__0764__A
*1104 ANTENNA__0765__A
*1105 ANTENNA__0781__A
*1106 ANTENNA__0791__A
*1107 ANTENNA__0793__B
*1108 ANTENNA__0795__A2
*1109 ANTENNA__0812__A1
*1110 ANTENNA__0817__A
*1111 ANTENNA__0822__A
*1112 ANTENNA__0827__A1
*1113 ANTENNA__0830__A
*1114 ANTENNA__0840__A1
*1115 ANTENNA__0840__B1_N
*1116 ANTENNA__0841__A
*1117 ANTENNA__0842__A
*1118 ANTENNA__0843__A1
*1119 ANTENNA__0851__A
*1120 ANTENNA__0852__A
*1121 ANTENNA__0852__B
*1122 ANTENNA__0853__A
*1123 ANTENNA__0853__B
*1124 ANTENNA__0855__A
*1125 ANTENNA__0856__B1
*1126 ANTENNA__0857__B
*1127 ANTENNA__0857__C_N
*1128 ANTENNA__0858__C
*1129 ANTENNA__0862__A1
*1130 ANTENNA__0893__A1
*1131 ANTENNA__0978__A
*1132 ANTENNA__0981__A1
*1133 ANTENNA__0984__A1
*1134 ANTENNA__0985__A1
*1135 ANTENNA__0988__A1
*1136 ANTENNA__1005__X
*1137 ANTENNA__1006__B
*1138 ANTENNA__1014__A_N
*1139 ANTENNA__1014__X
*1140 ANTENNA__1015__A
*1141 ANTENNA__1015__B
*1142 ANTENNA__1015__X
*1143 ANTENNA__1016__C1
*1144 ANTENNA__1022__A1
*1145 ANTENNA__1022__B1
*1146 ANTENNA__1038__A
*1147 ANTENNA__1040__B1
*1148 ANTENNA__1042__B1
*1149 ANTENNA__1046__A
*1150 ANTENNA__1052__A2
*1151 ANTENNA__1058__A2
*1152 ANTENNA__1065__A2
*1153 ANTENNA__1065__C1
*1154 ANTENNA__1068__A2
*1155 ANTENNA__1068__C1
*1156 ANTENNA__1074__A2
*1157 ANTENNA__1074__C1
*1158 ANTENNA__1080__A2
*1159 ANTENNA__1080__C1
*1160 ANTENNA__1083__A2
*1161 ANTENNA__1091__A2
*1162 ANTENNA__1091__C1
*1163 ANTENNA__1097__A2
*1164 ANTENNA__1097__C1
*1165 ANTENNA__1101__A2
*1166 ANTENNA__1101__C1
*1167 ANTENNA__1103__A2
*1168 ANTENNA__1107__A2
*1169 ANTENNA__1113__A2
*1170 ANTENNA__1113__C1
*1171 ANTENNA__1116__C1
*1172 ANTENNA__1133__A2
*1173 ANTENNA__1140__A2
*1174 ANTENNA__1148__A2
*1175 ANTENNA__1151__A2
*1176 ANTENNA__1155__A2
*1177 ANTENNA__1161__A2
*1178 ANTENNA__1176__C1
*1179 ANTENNA__1193__B2
*1180 ANTENNA__1204__A1
*1181 ANTENNA__1216__B1
*1182 ANTENNA__1222__X
*1183 ANTENNA__1232__B
*1184 ANTENNA__1243__B
*1185 ANTENNA__1245__B
*1186 ANTENNA__1249__A_N
*1187 ANTENNA__1250__B
*1188 ANTENNA__1260__A
*1189 ANTENNA__1269__A_N
*1190 ANTENNA__1270__B
*1191 ANTENNA__1281__CLK
*1192 ANTENNA__1281__D
*1193 ANTENNA__1281__RESET_B
*1194 ANTENNA__1282__RESET_B
*1195 ANTENNA__1283__CLK
*1196 ANTENNA__1283__RESET_B
*1197 ANTENNA__1284__CLK
*1198 ANTENNA__1284__RESET_B
*1199 ANTENNA__1285__CLK
*1200 ANTENNA__1285__RESET_B
*1201 ANTENNA__1286__RESET_B
*1202 ANTENNA__1287__RESET_B
*1203 ANTENNA__1288__RESET_B
*1204 ANTENNA__1289__RESET_B
*1205 ANTENNA__1290__RESET_B
*1206 ANTENNA__1291__RESET_B
*1207 ANTENNA__1292__CLK
*1208 ANTENNA__1292__RESET_B
*1209 ANTENNA__1293__RESET_B
*1210 ANTENNA__1294__RESET_B
*1211 ANTENNA__1295__CLK
*1212 ANTENNA__1295__RESET_B
*1213 ANTENNA__1296__CLK
*1214 ANTENNA__1297__CLK
*1215 ANTENNA__1297__RESET_B
*1216 ANTENNA__1298__CLK
*1217 ANTENNA__1298__RESET_B
*1218 ANTENNA__1299__CLK
*1219 ANTENNA__1299__RESET_B
*1220 ANTENNA__1300__CLK
*1221 ANTENNA__1300__RESET_B
*1222 ANTENNA__1301__CLK
*1223 ANTENNA__1302__CLK
*1224 ANTENNA__1303__CLK
*1225 ANTENNA__1304__CLK
*1226 ANTENNA__1305__CLK
*1227 ANTENNA__1306__CLK
*1228 ANTENNA__1307__CLK
*1229 ANTENNA__1307__RESET_B
*1230 ANTENNA__1308__CLK
*1231 ANTENNA__1309__CLK
*1232 ANTENNA__1309__RESET_B
*1233 ANTENNA__1310__CLK
*1234 ANTENNA__1310__RESET_B
*1235 ANTENNA__1311__CLK
*1236 ANTENNA__1311__RESET_B
*1237 ANTENNA__1312__CLK
*1238 ANTENNA__1312__RESET_B
*1239 ANTENNA__1313__CLK
*1240 ANTENNA__1313__RESET_B
*1241 ANTENNA__1314__CLK
*1242 ANTENNA__1314__RESET_B
*1243 ANTENNA__1315__CLK
*1244 ANTENNA__1315__RESET_B
*1245 ANTENNA__1316__CLK
*1246 ANTENNA__1316__RESET_B
*1247 ANTENNA__1351__A
*1248 ANTENNA__1358__A
*1249 ANTENNA_clkbuf_0_clk_A
*1250 ANTENNA_clkbuf_0_clk_X
*1251 ANTENNA_clkbuf_2_0__f_clk_A
*1252 ANTENNA_clkbuf_2_1__f_clk_A
*1253 ANTENNA_clkbuf_2_1__f_clk_X
*1254 ANTENNA_clkbuf_2_2__f_clk_A
*1255 ANTENNA_clkbuf_2_2__f_clk_X
*1256 ANTENNA_clkbuf_2_3__f_clk_A
*1257 ANTENNA_clkbuf_2_3__f_clk_X
*1258 ANTENNA_clkload1_A
*1259 ANTENNA_clkload2_A
*1260 ANTENNA_fanout102_A
*1261 ANTENNA_fanout103_A
*1262 ANTENNA_fanout103_X
*1263 ANTENNA_fanout109_A
*1264 ANTENNA_fanout110_X
*1265 ANTENNA_fanout111_A
*1266 ANTENNA_fanout112_A
*1267 ANTENNA_fanout113_A
*1268 ANTENNA_fanout114_A
*1269 ANTENNA_fanout116_A
*1270 ANTENNA_fanout117_A
*1271 ANTENNA_fanout119_A
*1272 ANTENNA_fanout120_X
*1273 ANTENNA_fanout122_A
*1274 ANTENNA_fanout122_X
*1275 ANTENNA_fanout123_A
*1276 ANTENNA_fanout124_A
*1277 ANTENNA_fanout124_X
*1278 ANTENNA_fanout125_A
*1279 ANTENNA_fanout125_X
*1280 ANTENNA_fanout126_X
*1281 ANTENNA_fanout127_X
*1282 ANTENNA_fanout90_X
*1283 ANTENNA_input10_A
*1284 ANTENNA_input11_A
*1285 ANTENNA_input11_X
*1286 ANTENNA_input12_A
*1287 ANTENNA_input12_X
*1288 ANTENNA_input13_A
*1289 ANTENNA_input14_A
*1290 ANTENNA_input14_X
*1291 ANTENNA_input15_A
*1292 ANTENNA_input15_X
*1293 ANTENNA_input16_A
*1294 ANTENNA_input17_A
*1295 ANTENNA_input17_X
*1296 ANTENNA_input18_A
*1297 ANTENNA_input18_X
*1298 ANTENNA_input19_A
*1299 ANTENNA_input19_X
*1300 ANTENNA_input1_A
*1301 ANTENNA_input20_A
*1302 ANTENNA_input2_A
*1303 ANTENNA_input3_A
*1304 ANTENNA_input4_A
*1305 ANTENNA_input4_X
*1306 ANTENNA_input5_A
*1307 ANTENNA_input6_A
*1308 ANTENNA_input6_X
*1309 ANTENNA_input7_A
*1310 ANTENNA_input8_A
*1311 ANTENNA_input8_X
*1312 ANTENNA_input9_A
*1313 FILLER_0_109
*1314 FILLER_0_111
*1315 FILLER_0_113
*1316 FILLER_0_125
*1317 FILLER_0_137
*1318 FILLER_0_139
*1319 FILLER_0_141
*1320 FILLER_0_15
*1321 FILLER_0_153
*1322 FILLER_0_165
*1323 FILLER_0_167
*1324 FILLER_0_169
*1325 FILLER_0_181
*1326 FILLER_0_188
*1327 FILLER_0_197
*1328 FILLER_0_209
*1329 FILLER_0_221
*1330 FILLER_0_223
*1331 FILLER_0_225
*1332 FILLER_0_237
*1333 FILLER_0_249
*1334 FILLER_0_251
*1335 FILLER_0_253
*1336 FILLER_0_265
*1337 FILLER_0_27
*1338 FILLER_0_272
*1339 FILLER_0_281
*1340 FILLER_0_286
*1341 FILLER_0_29
*1342 FILLER_0_298
*1343 FILLER_0_3
*1344 FILLER_0_306
*1345 FILLER_0_309
*1346 FILLER_0_321
*1347 FILLER_0_328
*1348 FILLER_0_335
*1349 FILLER_0_337
*1350 FILLER_0_342
*1351 FILLER_0_349
*1352 FILLER_0_356
*1353 FILLER_0_365
*1354 FILLER_0_377
*1355 FILLER_0_389
*1356 FILLER_0_391
*1357 FILLER_0_393
*1358 FILLER_0_398
*1359 FILLER_0_41
*1360 FILLER_0_410
*1361 FILLER_0_418
*1362 FILLER_0_421
*1363 FILLER_0_433
*1364 FILLER_0_441
*1365 FILLER_0_443
*1366 FILLER_0_447
*1367 FILLER_0_449
*1368 FILLER_0_457
*1369 FILLER_0_461
*1370 FILLER_0_468
*1371 FILLER_0_477
*1372 FILLER_0_489
*1373 FILLER_0_496
*1374 FILLER_0_505
*1375 FILLER_0_517
*1376 FILLER_0_529
*1377 FILLER_0_53
*1378 FILLER_0_531
*1379 FILLER_0_533
*1380 FILLER_0_545
*1381 FILLER_0_55
*1382 FILLER_0_557
*1383 FILLER_0_559
*1384 FILLER_0_561
*1385 FILLER_0_57
*1386 FILLER_0_573
*1387 FILLER_0_585
*1388 FILLER_0_587
*1389 FILLER_0_589
*1390 FILLER_0_601
*1391 FILLER_0_613
*1392 FILLER_0_615
*1393 FILLER_0_617
*1394 FILLER_0_69
*1395 FILLER_0_81
*1396 FILLER_0_83
*1397 FILLER_0_85
*1398 FILLER_0_97
*1399 FILLER_100_109
*1400 FILLER_100_121
*1401 FILLER_100_133
*1402 FILLER_100_137
*1403 FILLER_100_139
*1404 FILLER_100_141
*1405 FILLER_100_15
*1406 FILLER_100_153
*1407 FILLER_100_165
*1408 FILLER_100_177
*1409 FILLER_100_189
*1410 FILLER_100_193
*1411 FILLER_100_195
*1412 FILLER_100_197
*1413 FILLER_100_209
*1414 FILLER_100_221
*1415 FILLER_100_233
*1416 FILLER_100_245
*1417 FILLER_100_249
*1418 FILLER_100_251
*1419 FILLER_100_253
*1420 FILLER_100_265
*1421 FILLER_100_27
*1422 FILLER_100_277
*1423 FILLER_100_289
*1424 FILLER_100_29
*1425 FILLER_100_3
*1426 FILLER_100_301
*1427 FILLER_100_305
*1428 FILLER_100_307
*1429 FILLER_100_309
*1430 FILLER_100_321
*1431 FILLER_100_333
*1432 FILLER_100_345
*1433 FILLER_100_357
*1434 FILLER_100_361
*1435 FILLER_100_363
*1436 FILLER_100_365
*1437 FILLER_100_377
*1438 FILLER_100_389
*1439 FILLER_100_401
*1440 FILLER_100_41
*1441 FILLER_100_413
*1442 FILLER_100_417
*1443 FILLER_100_419
*1444 FILLER_100_421
*1445 FILLER_100_433
*1446 FILLER_100_445
*1447 FILLER_100_457
*1448 FILLER_100_469
*1449 FILLER_100_473
*1450 FILLER_100_475
*1451 FILLER_100_477
*1452 FILLER_100_489
*1453 FILLER_100_501
*1454 FILLER_100_513
*1455 FILLER_100_525
*1456 FILLER_100_529
*1457 FILLER_100_53
*1458 FILLER_100_531
*1459 FILLER_100_533
*1460 FILLER_100_545
*1461 FILLER_100_557
*1462 FILLER_100_569
*1463 FILLER_100_581
*1464 FILLER_100_585
*1465 FILLER_100_587
*1466 FILLER_100_589
*1467 FILLER_100_601
*1468 FILLER_100_605
*1469 FILLER_100_607
*1470 FILLER_100_65
*1471 FILLER_100_77
*1472 FILLER_100_81
*1473 FILLER_100_83
*1474 FILLER_100_85
*1475 FILLER_100_97
*1476 FILLER_101_109
*1477 FILLER_101_111
*1478 FILLER_101_113
*1479 FILLER_101_125
*1480 FILLER_101_137
*1481 FILLER_101_139
*1482 FILLER_101_141
*1483 FILLER_101_15
*1484 FILLER_101_153
*1485 FILLER_101_165
*1486 FILLER_101_167
*1487 FILLER_101_169
*1488 FILLER_101_181
*1489 FILLER_101_193
*1490 FILLER_101_195
*1491 FILLER_101_197
*1492 FILLER_101_209
*1493 FILLER_101_221
*1494 FILLER_101_223
*1495 FILLER_101_225
*1496 FILLER_101_237
*1497 FILLER_101_249
*1498 FILLER_101_251
*1499 FILLER_101_253
*1500 FILLER_101_265
*1501 FILLER_101_27
*1502 FILLER_101_272
*1503 FILLER_101_281
*1504 FILLER_101_29
*1505 FILLER_101_293
*1506 FILLER_101_3
*1507 FILLER_101_300
*1508 FILLER_101_309
*1509 FILLER_101_321
*1510 FILLER_101_328
*1511 FILLER_101_337
*1512 FILLER_101_349
*1513 FILLER_101_361
*1514 FILLER_101_363
*1515 FILLER_101_365
*1516 FILLER_101_373
*1517 FILLER_101_377
*1518 FILLER_101_389
*1519 FILLER_101_391
*1520 FILLER_101_393
*1521 FILLER_101_398
*1522 FILLER_101_41
*1523 FILLER_101_410
*1524 FILLER_101_414
*1525 FILLER_101_419
*1526 FILLER_101_421
*1527 FILLER_101_426
*1528 FILLER_101_438
*1529 FILLER_101_446
*1530 FILLER_101_449
*1531 FILLER_101_453
*1532 FILLER_101_455
*1533 FILLER_101_464
*1534 FILLER_101_477
*1535 FILLER_101_489
*1536 FILLER_101_501
*1537 FILLER_101_503
*1538 FILLER_101_505
*1539 FILLER_101_517
*1540 FILLER_101_529
*1541 FILLER_101_53
*1542 FILLER_101_531
*1543 FILLER_101_533
*1544 FILLER_101_545
*1545 FILLER_101_55
*1546 FILLER_101_557
*1547 FILLER_101_559
*1548 FILLER_101_561
*1549 FILLER_101_57
*1550 FILLER_101_573
*1551 FILLER_101_585
*1552 FILLER_101_587
*1553 FILLER_101_589
*1554 FILLER_101_601
*1555 FILLER_101_605
*1556 FILLER_101_607
*1557 FILLER_101_69
*1558 FILLER_101_81
*1559 FILLER_101_83
*1560 FILLER_101_85
*1561 FILLER_101_97
*1562 FILLER_10_109
*1563 FILLER_10_121
*1564 FILLER_10_133
*1565 FILLER_10_137
*1566 FILLER_10_139
*1567 FILLER_10_141
*1568 FILLER_10_15
*1569 FILLER_10_153
*1570 FILLER_10_165
*1571 FILLER_10_177
*1572 FILLER_10_189
*1573 FILLER_10_193
*1574 FILLER_10_195
*1575 FILLER_10_197
*1576 FILLER_10_209
*1577 FILLER_10_221
*1578 FILLER_10_233
*1579 FILLER_10_245
*1580 FILLER_10_249
*1581 FILLER_10_251
*1582 FILLER_10_253
*1583 FILLER_10_265
*1584 FILLER_10_27
*1585 FILLER_10_277
*1586 FILLER_10_289
*1587 FILLER_10_29
*1588 FILLER_10_3
*1589 FILLER_10_301
*1590 FILLER_10_305
*1591 FILLER_10_307
*1592 FILLER_10_309
*1593 FILLER_10_321
*1594 FILLER_10_333
*1595 FILLER_10_345
*1596 FILLER_10_357
*1597 FILLER_10_361
*1598 FILLER_10_363
*1599 FILLER_10_365
*1600 FILLER_10_377
*1601 FILLER_10_389
*1602 FILLER_10_401
*1603 FILLER_10_41
*1604 FILLER_10_413
*1605 FILLER_10_417
*1606 FILLER_10_419
*1607 FILLER_10_421
*1608 FILLER_10_433
*1609 FILLER_10_445
*1610 FILLER_10_457
*1611 FILLER_10_469
*1612 FILLER_10_473
*1613 FILLER_10_475
*1614 FILLER_10_477
*1615 FILLER_10_489
*1616 FILLER_10_501
*1617 FILLER_10_513
*1618 FILLER_10_525
*1619 FILLER_10_529
*1620 FILLER_10_53
*1621 FILLER_10_531
*1622 FILLER_10_533
*1623 FILLER_10_545
*1624 FILLER_10_557
*1625 FILLER_10_569
*1626 FILLER_10_581
*1627 FILLER_10_585
*1628 FILLER_10_587
*1629 FILLER_10_589
*1630 FILLER_10_601
*1631 FILLER_10_613
*1632 FILLER_10_621
*1633 FILLER_10_65
*1634 FILLER_10_77
*1635 FILLER_10_81
*1636 FILLER_10_83
*1637 FILLER_10_85
*1638 FILLER_10_97
*1639 FILLER_11_105
*1640 FILLER_11_109
*1641 FILLER_11_111
*1642 FILLER_11_113
*1643 FILLER_11_125
*1644 FILLER_11_137
*1645 FILLER_11_149
*1646 FILLER_11_15
*1647 FILLER_11_161
*1648 FILLER_11_165
*1649 FILLER_11_167
*1650 FILLER_11_169
*1651 FILLER_11_181
*1652 FILLER_11_193
*1653 FILLER_11_205
*1654 FILLER_11_217
*1655 FILLER_11_221
*1656 FILLER_11_223
*1657 FILLER_11_225
*1658 FILLER_11_237
*1659 FILLER_11_249
*1660 FILLER_11_261
*1661 FILLER_11_27
*1662 FILLER_11_273
*1663 FILLER_11_277
*1664 FILLER_11_279
*1665 FILLER_11_281
*1666 FILLER_11_293
*1667 FILLER_11_3
*1668 FILLER_11_305
*1669 FILLER_11_317
*1670 FILLER_11_329
*1671 FILLER_11_333
*1672 FILLER_11_335
*1673 FILLER_11_337
*1674 FILLER_11_349
*1675 FILLER_11_361
*1676 FILLER_11_373
*1677 FILLER_11_385
*1678 FILLER_11_389
*1679 FILLER_11_39
*1680 FILLER_11_391
*1681 FILLER_11_393
*1682 FILLER_11_405
*1683 FILLER_11_417
*1684 FILLER_11_429
*1685 FILLER_11_441
*1686 FILLER_11_445
*1687 FILLER_11_447
*1688 FILLER_11_449
*1689 FILLER_11_461
*1690 FILLER_11_473
*1691 FILLER_11_485
*1692 FILLER_11_497
*1693 FILLER_11_501
*1694 FILLER_11_503
*1695 FILLER_11_505
*1696 FILLER_11_51
*1697 FILLER_11_517
*1698 FILLER_11_529
*1699 FILLER_11_541
*1700 FILLER_11_55
*1701 FILLER_11_553
*1702 FILLER_11_557
*1703 FILLER_11_559
*1704 FILLER_11_561
*1705 FILLER_11_57
*1706 FILLER_11_573
*1707 FILLER_11_585
*1708 FILLER_11_597
*1709 FILLER_11_609